# generated using pymatgen
data_Zr3N4
_symmetry_space_group_name_H-M   'P 1'
_cell_length_a   13.48000000
_cell_length_b   13.48000000
_cell_length_c   216.77538000
_cell_angle_alpha   90.00000000
_cell_angle_beta   90.00000000
_cell_angle_gamma   90.00000000
_symmetry_Int_Tables_number   1
_chemical_formula_structural   Zr3N4
_chemical_formula_sum   'Zr1440 N1920'
_cell_volume   39390.34100995
_cell_formula_units_Z   480
loop_
 _symmetry_equiv_pos_site_id
 _symmetry_equiv_pos_as_xyz
  1  'x, y, z'
loop_
 _atom_site_type_symbol
 _atom_site_label
 _atom_site_symmetry_multiplicity
 _atom_site_fract_x
 _atom_site_fract_y
 _atom_site_fract_z
 _atom_site_occupancy
  N  N0  1  0.03150000  0.03150000  0.03655683  1
  N  N1  1  0.09350000  0.15650000  0.05595829  1
  N  N2  1  0.03150000  0.46850000  0.04818527  1
  N  N3  1  0.09350000  0.34350000  0.05987590  1
  N  N4  1  0.21850000  0.03150000  0.06373131  1
  N  N5  1  0.40650000  0.09350000  0.05595829  1
  N  N6  1  0.21850000  0.46850000  0.05210287  1
  N  N7  1  0.40650000  0.40650000  0.05987590  1
  N  N8  1  0.15650000  0.15650000  0.04432985  1
  N  N9  1  0.28150000  0.21850000  0.06373131  1
  N  N10  1  0.34350000  0.09350000  0.04432985  1
  N  N11  1  0.34350000  0.40650000  0.04041225  1
  N  N12  1  0.28150000  0.28150000  0.05210287  1
  N  N13  1  0.46850000  0.28150000  0.04818527  1
  N  N14  1  0.15650000  0.34350000  0.04041225  1
  N  N15  1  0.46850000  0.21850000  0.03655683  1
  Zr  Zr16  1  0.12500000  0.18750000  0.03459802  1
  Zr  Zr17  1  0.00000000  0.12500000  0.04625756  1
  Zr  Zr18  1  0.12500000  0.31250000  0.05014407  1
  Zr  Zr19  1  0.00000000  0.37500000  0.03848454  1
  Zr  Zr20  1  0.25000000  0.12500000  0.05403058  1
  Zr  Zr21  1  0.37500000  0.43750000  0.05014407  1
  Zr  Zr22  1  0.25000000  0.37500000  0.06180361  1
  Zr  Zr23  1  0.37500000  0.06250000  0.03459802  1
  Zr  Zr24  1  0.18750000  0.00000000  0.04237105  1
  Zr  Zr25  1  0.06250000  0.00000000  0.05791709  1
  Zr  Zr26  1  0.31250000  0.25000000  0.04237105  1
  Zr  Zr27  1  0.43750000  0.25000000  0.05791709  1
  N  N28  1  0.03150000  0.03150000  0.06764892  1
  N  N29  1  0.09350000  0.15650000  0.08705038  1
  N  N30  1  0.03150000  0.46850000  0.07927736  1
  N  N31  1  0.09350000  0.34350000  0.09096799  1
  N  N32  1  0.21850000  0.03150000  0.09482341  1
  N  N33  1  0.40650000  0.09350000  0.08705038  1
  N  N34  1  0.21850000  0.46850000  0.08319496  1
  N  N35  1  0.40650000  0.40650000  0.09096799  1
  N  N36  1  0.15650000  0.15650000  0.07542194  1
  N  N37  1  0.28150000  0.21850000  0.09482341  1
  N  N38  1  0.34350000  0.09350000  0.07542194  1
  N  N39  1  0.34350000  0.40650000  0.07150434  1
  N  N40  1  0.28150000  0.28150000  0.08319496  1
  N  N41  1  0.46850000  0.28150000  0.07927736  1
  N  N42  1  0.15650000  0.34350000  0.07150434  1
  N  N43  1  0.46850000  0.21850000  0.06764892  1
  Zr  Zr44  1  0.12500000  0.18750000  0.06569012  1
  Zr  Zr45  1  0.00000000  0.12500000  0.07734965  1
  Zr  Zr46  1  0.12500000  0.31250000  0.08123616  1
  Zr  Zr47  1  0.00000000  0.37500000  0.06957663  1
  Zr  Zr48  1  0.25000000  0.12500000  0.08512267  1
  Zr  Zr49  1  0.37500000  0.43750000  0.08123616  1
  Zr  Zr50  1  0.25000000  0.37500000  0.09289570  1
  Zr  Zr51  1  0.37500000  0.06250000  0.06569012  1
  Zr  Zr52  1  0.18750000  0.00000000  0.07346314  1
  Zr  Zr53  1  0.06250000  0.00000000  0.08900919  1
  Zr  Zr54  1  0.31250000  0.25000000  0.07346314  1
  Zr  Zr55  1  0.43750000  0.25000000  0.08900919  1
  N  N56  1  0.03150000  0.03150000  0.09874101  1
  N  N57  1  0.09350000  0.15650000  0.11814248  1
  N  N58  1  0.03150000  0.46850000  0.11036945  1
  N  N59  1  0.09350000  0.34350000  0.12206008  1
  N  N60  1  0.21850000  0.03150000  0.12591550  1
  N  N61  1  0.40650000  0.09350000  0.11814248  1
  N  N62  1  0.21850000  0.46850000  0.11428706  1
  N  N63  1  0.40650000  0.40650000  0.12206008  1
  N  N64  1  0.15650000  0.15650000  0.10651403  1
  N  N65  1  0.28150000  0.21850000  0.12591550  1
  N  N66  1  0.34350000  0.09350000  0.10651403  1
  N  N67  1  0.34350000  0.40650000  0.10259643  1
  N  N68  1  0.28150000  0.28150000  0.11428706  1
  N  N69  1  0.46850000  0.28150000  0.11036945  1
  N  N70  1  0.15650000  0.34350000  0.10259643  1
  N  N71  1  0.46850000  0.21850000  0.09874101  1
  Zr  Zr72  1  0.12500000  0.18750000  0.09678221  1
  Zr  Zr73  1  0.00000000  0.12500000  0.10844174  1
  Zr  Zr74  1  0.12500000  0.31250000  0.11232825  1
  Zr  Zr75  1  0.00000000  0.37500000  0.10066872  1
  Zr  Zr76  1  0.25000000  0.12500000  0.11621477  1
  Zr  Zr77  1  0.37500000  0.43750000  0.11232825  1
  Zr  Zr78  1  0.25000000  0.37500000  0.12398779  1
  Zr  Zr79  1  0.37500000  0.06250000  0.09678221  1
  Zr  Zr80  1  0.18750000  0.00000000  0.10455523  1
  Zr  Zr81  1  0.06250000  0.00000000  0.12010128  1
  Zr  Zr82  1  0.31250000  0.25000000  0.10455523  1
  Zr  Zr83  1  0.43750000  0.25000000  0.12010128  1
  N  N84  1  0.03150000  0.03150000  0.12983310  1
  N  N85  1  0.09350000  0.15650000  0.14923457  1
  N  N86  1  0.03150000  0.46850000  0.14146154  1
  N  N87  1  0.09350000  0.34350000  0.15315217  1
  N  N88  1  0.21850000  0.03150000  0.15700759  1
  N  N89  1  0.40650000  0.09350000  0.14923457  1
  N  N90  1  0.21850000  0.46850000  0.14537915  1
  N  N91  1  0.40650000  0.40650000  0.15315217  1
  N  N92  1  0.15650000  0.15650000  0.13760612  1
  N  N93  1  0.28150000  0.21850000  0.15700759  1
  N  N94  1  0.34350000  0.09350000  0.13760612  1
  N  N95  1  0.34350000  0.40650000  0.13368852  1
  N  N96  1  0.28150000  0.28150000  0.14537915  1
  N  N97  1  0.46850000  0.28150000  0.14146154  1
  N  N98  1  0.15650000  0.34350000  0.13368852  1
  N  N99  1  0.46850000  0.21850000  0.12983310  1
  Zr  Zr100  1  0.12500000  0.18750000  0.12787430  1
  Zr  Zr101  1  0.00000000  0.12500000  0.13953383  1
  Zr  Zr102  1  0.12500000  0.31250000  0.14342035  1
  Zr  Zr103  1  0.00000000  0.37500000  0.13176081  1
  Zr  Zr104  1  0.25000000  0.12500000  0.14730686  1
  Zr  Zr105  1  0.37500000  0.43750000  0.14342035  1
  Zr  Zr106  1  0.25000000  0.37500000  0.15507988  1
  Zr  Zr107  1  0.37500000  0.06250000  0.12787430  1
  Zr  Zr108  1  0.18750000  0.00000000  0.13564732  1
  Zr  Zr109  1  0.06250000  0.00000000  0.15119337  1
  Zr  Zr110  1  0.31250000  0.25000000  0.13564732  1
  Zr  Zr111  1  0.43750000  0.25000000  0.15119337  1
  N  N112  1  0.03150000  0.03150000  0.16092519  1
  N  N113  1  0.09350000  0.15650000  0.18032666  1
  N  N114  1  0.03150000  0.46850000  0.17255364  1
  N  N115  1  0.09350000  0.34350000  0.18424426  1
  N  N116  1  0.21850000  0.03150000  0.18809968  1
  N  N117  1  0.40650000  0.09350000  0.18032666  1
  N  N118  1  0.21850000  0.46850000  0.17647124  1
  N  N119  1  0.40650000  0.40650000  0.18424426  1
  N  N120  1  0.15650000  0.15650000  0.16869822  1
  N  N121  1  0.28150000  0.21850000  0.18809968  1
  N  N122  1  0.34350000  0.09350000  0.16869822  1
  N  N123  1  0.34350000  0.40650000  0.16478061  1
  N  N124  1  0.28150000  0.28150000  0.17647124  1
  N  N125  1  0.46850000  0.28150000  0.17255364  1
  N  N126  1  0.15650000  0.34350000  0.16478061  1
  N  N127  1  0.46850000  0.21850000  0.16092519  1
  Zr  Zr128  1  0.12500000  0.18750000  0.15896639  1
  Zr  Zr129  1  0.00000000  0.12500000  0.17062593  1
  Zr  Zr130  1  0.12500000  0.31250000  0.17451244  1
  Zr  Zr131  1  0.00000000  0.37500000  0.16285290  1
  Zr  Zr132  1  0.25000000  0.12500000  0.17839895  1
  Zr  Zr133  1  0.37500000  0.43750000  0.17451244  1
  Zr  Zr134  1  0.25000000  0.37500000  0.18617197  1
  Zr  Zr135  1  0.37500000  0.06250000  0.15896639  1
  Zr  Zr136  1  0.18750000  0.00000000  0.16673941  1
  Zr  Zr137  1  0.06250000  0.00000000  0.18228546  1
  Zr  Zr138  1  0.31250000  0.25000000  0.16673941  1
  Zr  Zr139  1  0.43750000  0.25000000  0.18228546  1
  N  N140  1  0.03150000  0.03150000  0.19201729  1
  N  N141  1  0.09350000  0.15650000  0.21141875  1
  N  N142  1  0.03150000  0.46850000  0.20364573  1
  N  N143  1  0.09350000  0.34350000  0.21533635  1
  N  N144  1  0.21850000  0.03150000  0.21919177  1
  N  N145  1  0.40650000  0.09350000  0.21141875  1
  N  N146  1  0.21850000  0.46850000  0.20756333  1
  N  N147  1  0.40650000  0.40650000  0.21533635  1
  N  N148  1  0.15650000  0.15650000  0.19979031  1
  N  N149  1  0.28150000  0.21850000  0.21919177  1
  N  N150  1  0.34350000  0.09350000  0.19979031  1
  N  N151  1  0.34350000  0.40650000  0.19587270  1
  N  N152  1  0.28150000  0.28150000  0.20756333  1
  N  N153  1  0.46850000  0.28150000  0.20364573  1
  N  N154  1  0.15650000  0.34350000  0.19587270  1
  N  N155  1  0.46850000  0.21850000  0.19201729  1
  Zr  Zr156  1  0.12500000  0.18750000  0.19005848  1
  Zr  Zr157  1  0.00000000  0.12500000  0.20171802  1
  Zr  Zr158  1  0.12500000  0.31250000  0.20560453  1
  Zr  Zr159  1  0.00000000  0.37500000  0.19394500  1
  Zr  Zr160  1  0.25000000  0.12500000  0.20949104  1
  Zr  Zr161  1  0.37500000  0.43750000  0.20560453  1
  Zr  Zr162  1  0.25000000  0.37500000  0.21726406  1
  Zr  Zr163  1  0.37500000  0.06250000  0.19005848  1
  Zr  Zr164  1  0.18750000  0.00000000  0.19783151  1
  Zr  Zr165  1  0.06250000  0.00000000  0.21337755  1
  Zr  Zr166  1  0.31250000  0.25000000  0.19783151  1
  Zr  Zr167  1  0.43750000  0.25000000  0.21337755  1
  N  N168  1  0.03150000  0.03150000  0.22310938  1
  N  N169  1  0.09350000  0.15650000  0.24251084  1
  N  N170  1  0.03150000  0.46850000  0.23473782  1
  N  N171  1  0.09350000  0.34350000  0.24642845  1
  N  N172  1  0.21850000  0.03150000  0.25028387  1
  N  N173  1  0.40650000  0.09350000  0.24251084  1
  N  N174  1  0.21850000  0.46850000  0.23865542  1
  N  N175  1  0.40650000  0.40650000  0.24642845  1
  N  N176  1  0.15650000  0.15650000  0.23088240  1
  N  N177  1  0.28150000  0.21850000  0.25028387  1
  N  N178  1  0.34350000  0.09350000  0.23088240  1
  N  N179  1  0.34350000  0.40650000  0.22696480  1
  N  N180  1  0.28150000  0.28150000  0.23865542  1
  N  N181  1  0.46850000  0.28150000  0.23473782  1
  N  N182  1  0.15650000  0.34350000  0.22696480  1
  N  N183  1  0.46850000  0.21850000  0.22310938  1
  Zr  Zr184  1  0.12500000  0.18750000  0.22115058  1
  Zr  Zr185  1  0.00000000  0.12500000  0.23281011  1
  Zr  Zr186  1  0.12500000  0.31250000  0.23669662  1
  Zr  Zr187  1  0.00000000  0.37500000  0.22503709  1
  Zr  Zr188  1  0.25000000  0.12500000  0.24058313  1
  Zr  Zr189  1  0.37500000  0.43750000  0.23669662  1
  Zr  Zr190  1  0.25000000  0.37500000  0.24835616  1
  Zr  Zr191  1  0.37500000  0.06250000  0.22115058  1
  Zr  Zr192  1  0.18750000  0.00000000  0.22892360  1
  Zr  Zr193  1  0.06250000  0.00000000  0.24446964  1
  Zr  Zr194  1  0.31250000  0.25000000  0.22892360  1
  Zr  Zr195  1  0.43750000  0.25000000  0.24446964  1
  N  N196  1  0.03150000  0.03150000  0.25420147  1
  N  N197  1  0.09350000  0.15650000  0.27360293  1
  N  N198  1  0.03150000  0.46850000  0.26582991  1
  N  N199  1  0.09350000  0.34350000  0.27752054  1
  N  N200  1  0.21850000  0.03150000  0.28137596  1
  N  N201  1  0.40650000  0.09350000  0.27360293  1
  N  N202  1  0.21850000  0.46850000  0.26974751  1
  N  N203  1  0.40650000  0.40650000  0.27752054  1
  N  N204  1  0.15650000  0.15650000  0.26197449  1
  N  N205  1  0.28150000  0.21850000  0.28137596  1
  N  N206  1  0.34350000  0.09350000  0.26197449  1
  N  N207  1  0.34350000  0.40650000  0.25805689  1
  N  N208  1  0.28150000  0.28150000  0.26974751  1
  N  N209  1  0.46850000  0.28150000  0.26582991  1
  N  N210  1  0.15650000  0.34350000  0.25805689  1
  N  N211  1  0.46850000  0.21850000  0.25420147  1
  Zr  Zr212  1  0.12500000  0.18750000  0.25224267  1
  Zr  Zr213  1  0.00000000  0.12500000  0.26390220  1
  Zr  Zr214  1  0.12500000  0.31250000  0.26778871  1
  Zr  Zr215  1  0.00000000  0.37500000  0.25612918  1
  Zr  Zr216  1  0.25000000  0.12500000  0.27167522  1
  Zr  Zr217  1  0.37500000  0.43750000  0.26778871  1
  Zr  Zr218  1  0.25000000  0.37500000  0.27944825  1
  Zr  Zr219  1  0.37500000  0.06250000  0.25224267  1
  Zr  Zr220  1  0.18750000  0.00000000  0.26001569  1
  Zr  Zr221  1  0.06250000  0.00000000  0.27556174  1
  Zr  Zr222  1  0.31250000  0.25000000  0.26001569  1
  Zr  Zr223  1  0.43750000  0.25000000  0.27556174  1
  N  N224  1  0.03150000  0.03150000  0.28529356  1
  N  N225  1  0.09350000  0.15650000  0.30469503  1
  N  N226  1  0.03150000  0.46850000  0.29692200  1
  N  N227  1  0.09350000  0.34350000  0.30861263  1
  N  N228  1  0.21850000  0.03150000  0.31246805  1
  N  N229  1  0.40650000  0.09350000  0.30469503  1
  N  N230  1  0.21850000  0.46850000  0.30083961  1
  N  N231  1  0.40650000  0.40650000  0.30861263  1
  N  N232  1  0.15650000  0.15650000  0.29306658  1
  N  N233  1  0.28150000  0.21850000  0.31246805  1
  N  N234  1  0.34350000  0.09350000  0.29306658  1
  N  N235  1  0.34350000  0.40650000  0.28914898  1
  N  N236  1  0.28150000  0.28150000  0.30083961  1
  N  N237  1  0.46850000  0.28150000  0.29692200  1
  N  N238  1  0.15650000  0.34350000  0.28914898  1
  N  N239  1  0.46850000  0.21850000  0.28529356  1
  Zr  Zr240  1  0.12500000  0.18750000  0.28333476  1
  Zr  Zr241  1  0.00000000  0.12500000  0.29499429  1
  Zr  Zr242  1  0.12500000  0.31250000  0.29888080  1
  Zr  Zr243  1  0.00000000  0.37500000  0.28722127  1
  Zr  Zr244  1  0.25000000  0.12500000  0.30276732  1
  Zr  Zr245  1  0.37500000  0.43750000  0.29888080  1
  Zr  Zr246  1  0.25000000  0.37500000  0.31054034  1
  Zr  Zr247  1  0.37500000  0.06250000  0.28333476  1
  Zr  Zr248  1  0.18750000  0.00000000  0.29110778  1
  Zr  Zr249  1  0.06250000  0.00000000  0.30665383  1
  Zr  Zr250  1  0.31250000  0.25000000  0.29110778  1
  Zr  Zr251  1  0.43750000  0.25000000  0.30665383  1
  N  N252  1  0.03150000  0.03150000  0.31638565  1
  N  N253  1  0.09350000  0.15650000  0.33578712  1
  N  N254  1  0.03150000  0.46850000  0.32801409  1
  N  N255  1  0.09350000  0.34350000  0.33970472  1
  N  N256  1  0.21850000  0.03150000  0.34356014  1
  N  N257  1  0.40650000  0.09350000  0.33578712  1
  N  N258  1  0.21850000  0.46850000  0.33193170  1
  N  N259  1  0.40650000  0.40650000  0.33970472  1
  N  N260  1  0.15650000  0.15650000  0.32415868  1
  N  N261  1  0.28150000  0.21850000  0.34356014  1
  N  N262  1  0.34350000  0.09350000  0.32415868  1
  N  N263  1  0.34350000  0.40650000  0.32024107  1
  N  N264  1  0.28150000  0.28150000  0.33193170  1
  N  N265  1  0.46850000  0.28150000  0.32801409  1
  N  N266  1  0.15650000  0.34350000  0.32024107  1
  N  N267  1  0.46850000  0.21850000  0.31638565  1
  Zr  Zr268  1  0.12500000  0.18750000  0.31442685  1
  Zr  Zr269  1  0.00000000  0.12500000  0.32608638  1
  Zr  Zr270  1  0.12500000  0.31250000  0.32997290  1
  Zr  Zr271  1  0.00000000  0.37500000  0.31831336  1
  Zr  Zr272  1  0.25000000  0.12500000  0.33385941  1
  Zr  Zr273  1  0.37500000  0.43750000  0.32997290  1
  Zr  Zr274  1  0.25000000  0.37500000  0.34163243  1
  Zr  Zr275  1  0.37500000  0.06250000  0.31442685  1
  Zr  Zr276  1  0.18750000  0.00000000  0.32219987  1
  Zr  Zr277  1  0.06250000  0.00000000  0.33774592  1
  Zr  Zr278  1  0.31250000  0.25000000  0.32219987  1
  Zr  Zr279  1  0.43750000  0.25000000  0.33774592  1
  N  N280  1  0.03150000  0.03150000  0.34747774  1
  N  N281  1  0.09350000  0.15650000  0.36687921  1
  N  N282  1  0.03150000  0.46850000  0.35910619  1
  N  N283  1  0.09350000  0.34350000  0.37079681  1
  N  N284  1  0.21850000  0.03150000  0.37465223  1
  N  N285  1  0.40650000  0.09350000  0.36687921  1
  N  N286  1  0.21850000  0.46850000  0.36302379  1
  N  N287  1  0.40650000  0.40650000  0.37079681  1
  N  N288  1  0.15650000  0.15650000  0.35525077  1
  N  N289  1  0.28150000  0.21850000  0.37465223  1
  N  N290  1  0.34350000  0.09350000  0.35525077  1
  N  N291  1  0.34350000  0.40650000  0.35133316  1
  N  N292  1  0.28150000  0.28150000  0.36302379  1
  N  N293  1  0.46850000  0.28150000  0.35910619  1
  N  N294  1  0.15650000  0.34350000  0.35133316  1
  N  N295  1  0.46850000  0.21850000  0.34747774  1
  Zr  Zr296  1  0.12500000  0.18750000  0.34551894  1
  Zr  Zr297  1  0.00000000  0.12500000  0.35717848  1
  Zr  Zr298  1  0.12500000  0.31250000  0.36106499  1
  Zr  Zr299  1  0.00000000  0.37500000  0.34940545  1
  Zr  Zr300  1  0.25000000  0.12500000  0.36495150  1
  Zr  Zr301  1  0.37500000  0.43750000  0.36106499  1
  Zr  Zr302  1  0.25000000  0.37500000  0.37272452  1
  Zr  Zr303  1  0.37500000  0.06250000  0.34551894  1
  Zr  Zr304  1  0.18750000  0.00000000  0.35329197  1
  Zr  Zr305  1  0.06250000  0.00000000  0.36883801  1
  Zr  Zr306  1  0.31250000  0.25000000  0.35329197  1
  Zr  Zr307  1  0.43750000  0.25000000  0.36883801  1
  N  N308  1  0.03150000  0.03150000  0.37856984  1
  N  N309  1  0.09350000  0.15650000  0.39797130  1
  N  N310  1  0.03150000  0.46850000  0.39019828  1
  N  N311  1  0.09350000  0.34350000  0.40188890  1
  N  N312  1  0.21850000  0.03150000  0.40574432  1
  N  N313  1  0.40650000  0.09350000  0.39797130  1
  N  N314  1  0.21850000  0.46850000  0.39411588  1
  N  N315  1  0.40650000  0.40650000  0.40188890  1
  N  N316  1  0.15650000  0.15650000  0.38634286  1
  N  N317  1  0.28150000  0.21850000  0.40574432  1
  N  N318  1  0.34350000  0.09350000  0.38634286  1
  N  N319  1  0.34350000  0.40650000  0.38242526  1
  N  N320  1  0.28150000  0.28150000  0.39411588  1
  N  N321  1  0.46850000  0.28150000  0.39019828  1
  N  N322  1  0.15650000  0.34350000  0.38242526  1
  N  N323  1  0.46850000  0.21850000  0.37856984  1
  Zr  Zr324  1  0.12500000  0.18750000  0.37661103  1
  Zr  Zr325  1  0.00000000  0.12500000  0.38827057  1
  Zr  Zr326  1  0.12500000  0.31250000  0.39215708  1
  Zr  Zr327  1  0.00000000  0.37500000  0.38049755  1
  Zr  Zr328  1  0.25000000  0.12500000  0.39604359  1
  Zr  Zr329  1  0.37500000  0.43750000  0.39215708  1
  Zr  Zr330  1  0.25000000  0.37500000  0.40381661  1
  Zr  Zr331  1  0.37500000  0.06250000  0.37661103  1
  Zr  Zr332  1  0.18750000  0.00000000  0.38438406  1
  Zr  Zr333  1  0.06250000  0.00000000  0.39993010  1
  Zr  Zr334  1  0.31250000  0.25000000  0.38438406  1
  Zr  Zr335  1  0.43750000  0.25000000  0.39993010  1
  N  N336  1  0.03150000  0.03150000  0.40966193  1
  N  N337  1  0.09350000  0.15650000  0.42906339  1
  N  N338  1  0.03150000  0.46850000  0.42129037  1
  N  N339  1  0.09350000  0.34350000  0.43298100  1
  N  N340  1  0.21850000  0.03150000  0.43683642  1
  N  N341  1  0.40650000  0.09350000  0.42906339  1
  N  N342  1  0.21850000  0.46850000  0.42520797  1
  N  N343  1  0.40650000  0.40650000  0.43298100  1
  N  N344  1  0.15650000  0.15650000  0.41743495  1
  N  N345  1  0.28150000  0.21850000  0.43683642  1
  N  N346  1  0.34350000  0.09350000  0.41743495  1
  N  N347  1  0.34350000  0.40650000  0.41351735  1
  N  N348  1  0.28150000  0.28150000  0.42520797  1
  N  N349  1  0.46850000  0.28150000  0.42129037  1
  N  N350  1  0.15650000  0.34350000  0.41351735  1
  N  N351  1  0.46850000  0.21850000  0.40966193  1
  Zr  Zr352  1  0.12500000  0.18750000  0.40770313  1
  Zr  Zr353  1  0.00000000  0.12500000  0.41936266  1
  Zr  Zr354  1  0.12500000  0.31250000  0.42324917  1
  Zr  Zr355  1  0.00000000  0.37500000  0.41158964  1
  Zr  Zr356  1  0.25000000  0.12500000  0.42713568  1
  Zr  Zr357  1  0.37500000  0.43750000  0.42324917  1
  Zr  Zr358  1  0.25000000  0.37500000  0.43490871  1
  Zr  Zr359  1  0.37500000  0.06250000  0.40770313  1
  Zr  Zr360  1  0.18750000  0.00000000  0.41547615  1
  Zr  Zr361  1  0.06250000  0.00000000  0.43102219  1
  Zr  Zr362  1  0.31250000  0.25000000  0.41547615  1
  Zr  Zr363  1  0.43750000  0.25000000  0.43102219  1
  N  N364  1  0.03150000  0.03150000  0.44075402  1
  N  N365  1  0.09350000  0.15650000  0.46015548  1
  N  N366  1  0.03150000  0.46850000  0.45238246  1
  N  N367  1  0.09350000  0.34350000  0.46407309  1
  N  N368  1  0.21850000  0.03150000  0.46792851  1
  N  N369  1  0.40650000  0.09350000  0.46015548  1
  N  N370  1  0.21850000  0.46850000  0.45630007  1
  N  N371  1  0.40650000  0.40650000  0.46407309  1
  N  N372  1  0.15650000  0.15650000  0.44852704  1
  N  N373  1  0.28150000  0.21850000  0.46792851  1
  N  N374  1  0.34350000  0.09350000  0.44852704  1
  N  N375  1  0.34350000  0.40650000  0.44460944  1
  N  N376  1  0.28150000  0.28150000  0.45630007  1
  N  N377  1  0.46850000  0.28150000  0.45238246  1
  N  N378  1  0.15650000  0.34350000  0.44460944  1
  N  N379  1  0.46850000  0.21850000  0.44075402  1
  Zr  Zr380  1  0.12500000  0.18750000  0.43879522  1
  Zr  Zr381  1  0.00000000  0.12500000  0.45045475  1
  Zr  Zr382  1  0.12500000  0.31250000  0.45434126  1
  Zr  Zr383  1  0.00000000  0.37500000  0.44268173  1
  Zr  Zr384  1  0.25000000  0.12500000  0.45822777  1
  Zr  Zr385  1  0.37500000  0.43750000  0.45434126  1
  Zr  Zr386  1  0.25000000  0.37500000  0.46600080  1
  Zr  Zr387  1  0.37500000  0.06250000  0.43879522  1
  Zr  Zr388  1  0.18750000  0.00000000  0.44656824  1
  Zr  Zr389  1  0.06250000  0.00000000  0.46211429  1
  Zr  Zr390  1  0.31250000  0.25000000  0.44656824  1
  Zr  Zr391  1  0.43750000  0.25000000  0.46211429  1
  N  N392  1  0.03150000  0.03150000  0.47184611  1
  N  N393  1  0.09350000  0.15650000  0.49124758  1
  N  N394  1  0.03150000  0.46850000  0.48347455  1
  N  N395  1  0.09350000  0.34350000  0.49516518  1
  N  N396  1  0.21850000  0.03150000  0.49902060  1
  N  N397  1  0.40650000  0.09350000  0.49124758  1
  N  N398  1  0.21850000  0.46850000  0.48739216  1
  N  N399  1  0.40650000  0.40650000  0.49516518  1
  N  N400  1  0.15650000  0.15650000  0.47961913  1
  N  N401  1  0.28150000  0.21850000  0.49902060  1
  N  N402  1  0.34350000  0.09350000  0.47961913  1
  N  N403  1  0.34350000  0.40650000  0.47570153  1
  N  N404  1  0.28150000  0.28150000  0.48739216  1
  N  N405  1  0.46850000  0.28150000  0.48347455  1
  N  N406  1  0.15650000  0.34350000  0.47570153  1
  N  N407  1  0.46850000  0.21850000  0.47184611  1
  Zr  Zr408  1  0.12500000  0.18750000  0.46988731  1
  Zr  Zr409  1  0.00000000  0.12500000  0.48154684  1
  Zr  Zr410  1  0.12500000  0.31250000  0.48543336  1
  Zr  Zr411  1  0.00000000  0.37500000  0.47377382  1
  Zr  Zr412  1  0.25000000  0.12500000  0.48931987  1
  Zr  Zr413  1  0.37500000  0.43750000  0.48543336  1
  Zr  Zr414  1  0.25000000  0.37500000  0.49709289  1
  Zr  Zr415  1  0.37500000  0.06250000  0.46988731  1
  Zr  Zr416  1  0.18750000  0.00000000  0.47766033  1
  Zr  Zr417  1  0.06250000  0.00000000  0.49320638  1
  Zr  Zr418  1  0.31250000  0.25000000  0.47766033  1
  Zr  Zr419  1  0.43750000  0.25000000  0.49320638  1
  N  N420  1  0.03150000  0.03150000  0.50293820  1
  N  N421  1  0.09350000  0.15650000  0.52233967  1
  N  N422  1  0.03150000  0.46850000  0.51456664  1
  N  N423  1  0.09350000  0.34350000  0.52625727  1
  N  N424  1  0.21850000  0.03150000  0.53011269  1
  N  N425  1  0.40650000  0.09350000  0.52233967  1
  N  N426  1  0.21850000  0.46850000  0.51848425  1
  N  N427  1  0.40650000  0.40650000  0.52625727  1
  N  N428  1  0.15650000  0.15650000  0.51071123  1
  N  N429  1  0.28150000  0.21850000  0.53011269  1
  N  N430  1  0.34350000  0.09350000  0.51071123  1
  N  N431  1  0.34350000  0.40650000  0.50679362  1
  N  N432  1  0.28150000  0.28150000  0.51848425  1
  N  N433  1  0.46850000  0.28150000  0.51456664  1
  N  N434  1  0.15650000  0.34350000  0.50679362  1
  N  N435  1  0.46850000  0.21850000  0.50293820  1
  Zr  Zr436  1  0.12500000  0.18750000  0.50097940  1
  Zr  Zr437  1  0.00000000  0.12500000  0.51263894  1
  Zr  Zr438  1  0.12500000  0.31250000  0.51652545  1
  Zr  Zr439  1  0.00000000  0.37500000  0.50486591  1
  Zr  Zr440  1  0.25000000  0.12500000  0.52041196  1
  Zr  Zr441  1  0.37500000  0.43750000  0.51652545  1
  Zr  Zr442  1  0.25000000  0.37500000  0.52818498  1
  Zr  Zr443  1  0.37500000  0.06250000  0.50097940  1
  Zr  Zr444  1  0.18750000  0.00000000  0.50875242  1
  Zr  Zr445  1  0.06250000  0.00000000  0.52429847  1
  Zr  Zr446  1  0.31250000  0.25000000  0.50875242  1
  Zr  Zr447  1  0.43750000  0.25000000  0.52429847  1
  N  N448  1  0.03150000  0.03150000  0.53403029  1
  N  N449  1  0.09350000  0.15650000  0.55343176  1
  N  N450  1  0.03150000  0.46850000  0.54565874  1
  N  N451  1  0.09350000  0.34350000  0.55734936  1
  N  N452  1  0.21850000  0.03150000  0.56120478  1
  N  N453  1  0.40650000  0.09350000  0.55343176  1
  N  N454  1  0.21850000  0.46850000  0.54957634  1
  N  N455  1  0.40650000  0.40650000  0.55734936  1
  N  N456  1  0.15650000  0.15650000  0.54180332  1
  N  N457  1  0.28150000  0.21850000  0.56120478  1
  N  N458  1  0.34350000  0.09350000  0.54180332  1
  N  N459  1  0.34350000  0.40650000  0.53788571  1
  N  N460  1  0.28150000  0.28150000  0.54957634  1
  N  N461  1  0.46850000  0.28150000  0.54565874  1
  N  N462  1  0.15650000  0.34350000  0.53788571  1
  N  N463  1  0.46850000  0.21850000  0.53403029  1
  Zr  Zr464  1  0.12500000  0.18750000  0.53207149  1
  Zr  Zr465  1  0.00000000  0.12500000  0.54373103  1
  Zr  Zr466  1  0.12500000  0.31250000  0.54761754  1
  Zr  Zr467  1  0.00000000  0.37500000  0.53595800  1
  Zr  Zr468  1  0.25000000  0.12500000  0.55150405  1
  Zr  Zr469  1  0.37500000  0.43750000  0.54761754  1
  Zr  Zr470  1  0.25000000  0.37500000  0.55927707  1
  Zr  Zr471  1  0.37500000  0.06250000  0.53207149  1
  Zr  Zr472  1  0.18750000  0.00000000  0.53984452  1
  Zr  Zr473  1  0.06250000  0.00000000  0.55539056  1
  Zr  Zr474  1  0.31250000  0.25000000  0.53984452  1
  Zr  Zr475  1  0.43750000  0.25000000  0.55539056  1
  N  N476  1  0.03150000  0.03150000  0.56512239  1
  N  N477  1  0.09350000  0.15650000  0.58452385  1
  N  N478  1  0.03150000  0.46850000  0.57675083  1
  N  N479  1  0.09350000  0.34350000  0.58844145  1
  N  N480  1  0.21850000  0.03150000  0.59229687  1
  N  N481  1  0.40650000  0.09350000  0.58452385  1
  N  N482  1  0.21850000  0.46850000  0.58066843  1
  N  N483  1  0.40650000  0.40650000  0.58844145  1
  N  N484  1  0.15650000  0.15650000  0.57289541  1
  N  N485  1  0.28150000  0.21850000  0.59229687  1
  N  N486  1  0.34350000  0.09350000  0.57289541  1
  N  N487  1  0.34350000  0.40650000  0.56897781  1
  N  N488  1  0.28150000  0.28150000  0.58066843  1
  N  N489  1  0.46850000  0.28150000  0.57675083  1
  N  N490  1  0.15650000  0.34350000  0.56897781  1
  N  N491  1  0.46850000  0.21850000  0.56512239  1
  Zr  Zr492  1  0.12500000  0.18750000  0.56316358  1
  Zr  Zr493  1  0.00000000  0.12500000  0.57482312  1
  Zr  Zr494  1  0.12500000  0.31250000  0.57870963  1
  Zr  Zr495  1  0.00000000  0.37500000  0.56705010  1
  Zr  Zr496  1  0.25000000  0.12500000  0.58259614  1
  Zr  Zr497  1  0.37500000  0.43750000  0.57870963  1
  Zr  Zr498  1  0.25000000  0.37500000  0.59036916  1
  Zr  Zr499  1  0.37500000  0.06250000  0.56316358  1
  Zr  Zr500  1  0.18750000  0.00000000  0.57093661  1
  Zr  Zr501  1  0.06250000  0.00000000  0.58648265  1
  Zr  Zr502  1  0.31250000  0.25000000  0.57093661  1
  Zr  Zr503  1  0.43750000  0.25000000  0.58648265  1
  N  N504  1  0.03150000  0.03150000  0.59621448  1
  N  N505  1  0.09350000  0.15650000  0.61561594  1
  N  N506  1  0.03150000  0.46850000  0.60784292  1
  N  N507  1  0.09350000  0.34350000  0.61953355  1
  N  N508  1  0.21850000  0.03150000  0.62338897  1
  N  N509  1  0.40650000  0.09350000  0.61561594  1
  N  N510  1  0.21850000  0.46850000  0.61176052  1
  N  N511  1  0.40650000  0.40650000  0.61953355  1
  N  N512  1  0.15650000  0.15650000  0.60398750  1
  N  N513  1  0.28150000  0.21850000  0.62338897  1
  N  N514  1  0.34350000  0.09350000  0.60398750  1
  N  N515  1  0.34350000  0.40650000  0.60006990  1
  N  N516  1  0.28150000  0.28150000  0.61176052  1
  N  N517  1  0.46850000  0.28150000  0.60784292  1
  N  N518  1  0.15650000  0.34350000  0.60006990  1
  N  N519  1  0.46850000  0.21850000  0.59621448  1
  Zr  Zr520  1  0.12500000  0.18750000  0.59425568  1
  Zr  Zr521  1  0.00000000  0.12500000  0.60591521  1
  Zr  Zr522  1  0.12500000  0.31250000  0.60980172  1
  Zr  Zr523  1  0.00000000  0.37500000  0.59814219  1
  Zr  Zr524  1  0.25000000  0.12500000  0.61368823  1
  Zr  Zr525  1  0.37500000  0.43750000  0.60980172  1
  Zr  Zr526  1  0.25000000  0.37500000  0.62146126  1
  Zr  Zr527  1  0.37500000  0.06250000  0.59425568  1
  Zr  Zr528  1  0.18750000  0.00000000  0.60202870  1
  Zr  Zr529  1  0.06250000  0.00000000  0.61757474  1
  Zr  Zr530  1  0.31250000  0.25000000  0.60202870  1
  Zr  Zr531  1  0.43750000  0.25000000  0.61757474  1
  N  N532  1  0.03150000  0.03150000  0.62730657  1
  N  N533  1  0.09350000  0.15650000  0.64670803  1
  N  N534  1  0.03150000  0.46850000  0.63893501  1
  N  N535  1  0.09350000  0.34350000  0.65062564  1
  N  N536  1  0.21850000  0.03150000  0.65448106  1
  N  N537  1  0.40650000  0.09350000  0.64670803  1
  N  N538  1  0.21850000  0.46850000  0.64285262  1
  N  N539  1  0.40650000  0.40650000  0.65062564  1
  N  N540  1  0.15650000  0.15650000  0.63507959  1
  N  N541  1  0.28150000  0.21850000  0.65448106  1
  N  N542  1  0.34350000  0.09350000  0.63507959  1
  N  N543  1  0.34350000  0.40650000  0.63116199  1
  N  N544  1  0.28150000  0.28150000  0.64285262  1
  N  N545  1  0.46850000  0.28150000  0.63893501  1
  N  N546  1  0.15650000  0.34350000  0.63116199  1
  N  N547  1  0.46850000  0.21850000  0.62730657  1
  Zr  Zr548  1  0.12500000  0.18750000  0.62534777  1
  Zr  Zr549  1  0.00000000  0.12500000  0.63700730  1
  Zr  Zr550  1  0.12500000  0.31250000  0.64089381  1
  Zr  Zr551  1  0.00000000  0.37500000  0.62923428  1
  Zr  Zr552  1  0.25000000  0.12500000  0.64478033  1
  Zr  Zr553  1  0.37500000  0.43750000  0.64089381  1
  Zr  Zr554  1  0.25000000  0.37500000  0.65255335  1
  Zr  Zr555  1  0.37500000  0.06250000  0.62534777  1
  Zr  Zr556  1  0.18750000  0.00000000  0.63312079  1
  Zr  Zr557  1  0.06250000  0.00000000  0.64866684  1
  Zr  Zr558  1  0.31250000  0.25000000  0.63312079  1
  Zr  Zr559  1  0.43750000  0.25000000  0.64866684  1
  N  N560  1  0.03150000  0.03150000  0.65839866  1
  N  N561  1  0.09350000  0.15650000  0.67780013  1
  N  N562  1  0.03150000  0.46850000  0.67002710  1
  N  N563  1  0.09350000  0.34350000  0.68171773  1
  N  N564  1  0.21850000  0.03150000  0.68557315  1
  N  N565  1  0.40650000  0.09350000  0.67780013  1
  N  N566  1  0.21850000  0.46850000  0.67394471  1
  N  N567  1  0.40650000  0.40650000  0.68171773  1
  N  N568  1  0.15650000  0.15650000  0.66617168  1
  N  N569  1  0.28150000  0.21850000  0.68557315  1
  N  N570  1  0.34350000  0.09350000  0.66617168  1
  N  N571  1  0.34350000  0.40650000  0.66225408  1
  N  N572  1  0.28150000  0.28150000  0.67394471  1
  N  N573  1  0.46850000  0.28150000  0.67002710  1
  N  N574  1  0.15650000  0.34350000  0.66225408  1
  N  N575  1  0.46850000  0.21850000  0.65839866  1
  Zr  Zr576  1  0.12500000  0.18750000  0.65643986  1
  Zr  Zr577  1  0.00000000  0.12500000  0.66809939  1
  Zr  Zr578  1  0.12500000  0.31250000  0.67198591  1
  Zr  Zr579  1  0.00000000  0.37500000  0.66032637  1
  Zr  Zr580  1  0.25000000  0.12500000  0.67587242  1
  Zr  Zr581  1  0.37500000  0.43750000  0.67198591  1
  Zr  Zr582  1  0.25000000  0.37500000  0.68364544  1
  Zr  Zr583  1  0.37500000  0.06250000  0.65643986  1
  Zr  Zr584  1  0.18750000  0.00000000  0.66421288  1
  Zr  Zr585  1  0.06250000  0.00000000  0.67975893  1
  Zr  Zr586  1  0.31250000  0.25000000  0.66421288  1
  Zr  Zr587  1  0.43750000  0.25000000  0.67975893  1
  N  N588  1  0.03150000  0.03150000  0.68949075  1
  N  N589  1  0.09350000  0.15650000  0.70889222  1
  N  N590  1  0.03150000  0.46850000  0.70111920  1
  N  N591  1  0.09350000  0.34350000  0.71280982  1
  N  N592  1  0.21850000  0.03150000  0.71666524  1
  N  N593  1  0.40650000  0.09350000  0.70889222  1
  N  N594  1  0.21850000  0.46850000  0.70503680  1
  N  N595  1  0.40650000  0.40650000  0.71280982  1
  N  N596  1  0.15650000  0.15650000  0.69726378  1
  N  N597  1  0.28150000  0.21850000  0.71666524  1
  N  N598  1  0.34350000  0.09350000  0.69726378  1
  N  N599  1  0.34350000  0.40650000  0.69334617  1
  N  N600  1  0.28150000  0.28150000  0.70503680  1
  N  N601  1  0.46850000  0.28150000  0.70111920  1
  N  N602  1  0.15650000  0.34350000  0.69334617  1
  N  N603  1  0.46850000  0.21850000  0.68949075  1
  Zr  Zr604  1  0.12500000  0.18750000  0.68753195  1
  Zr  Zr605  1  0.00000000  0.12500000  0.69919149  1
  Zr  Zr606  1  0.12500000  0.31250000  0.70307800  1
  Zr  Zr607  1  0.00000000  0.37500000  0.69141846  1
  Zr  Zr608  1  0.25000000  0.12500000  0.70696451  1
  Zr  Zr609  1  0.37500000  0.43750000  0.70307800  1
  Zr  Zr610  1  0.25000000  0.37500000  0.71473753  1
  Zr  Zr611  1  0.37500000  0.06250000  0.68753195  1
  Zr  Zr612  1  0.18750000  0.00000000  0.69530497  1
  Zr  Zr613  1  0.06250000  0.00000000  0.71085102  1
  Zr  Zr614  1  0.31250000  0.25000000  0.69530497  1
  Zr  Zr615  1  0.43750000  0.25000000  0.71085102  1
  N  N616  1  0.03150000  0.03150000  0.72058284  1
  N  N617  1  0.09350000  0.15650000  0.73998431  1
  N  N618  1  0.03150000  0.46850000  0.73221129  1
  N  N619  1  0.09350000  0.34350000  0.74390191  1
  N  N620  1  0.21850000  0.03150000  0.74775733  1
  N  N621  1  0.40650000  0.09350000  0.73998431  1
  N  N622  1  0.21850000  0.46850000  0.73612889  1
  N  N623  1  0.40650000  0.40650000  0.74390191  1
  N  N624  1  0.15650000  0.15650000  0.72835587  1
  N  N625  1  0.28150000  0.21850000  0.74775733  1
  N  N626  1  0.34350000  0.09350000  0.72835587  1
  N  N627  1  0.34350000  0.40650000  0.72443826  1
  N  N628  1  0.28150000  0.28150000  0.73612889  1
  N  N629  1  0.46850000  0.28150000  0.73221129  1
  N  N630  1  0.15650000  0.34350000  0.72443826  1
  N  N631  1  0.46850000  0.21850000  0.72058284  1
  Zr  Zr632  1  0.12500000  0.18750000  0.71862404  1
  Zr  Zr633  1  0.00000000  0.12500000  0.73028358  1
  Zr  Zr634  1  0.12500000  0.31250000  0.73417009  1
  Zr  Zr635  1  0.00000000  0.37500000  0.72251055  1
  Zr  Zr636  1  0.25000000  0.12500000  0.73805660  1
  Zr  Zr637  1  0.37500000  0.43750000  0.73417009  1
  Zr  Zr638  1  0.25000000  0.37500000  0.74582962  1
  Zr  Zr639  1  0.37500000  0.06250000  0.71862404  1
  Zr  Zr640  1  0.18750000  0.00000000  0.72639707  1
  Zr  Zr641  1  0.06250000  0.00000000  0.74194311  1
  Zr  Zr642  1  0.31250000  0.25000000  0.72639707  1
  Zr  Zr643  1  0.43750000  0.25000000  0.74194311  1
  N  N644  1  0.03150000  0.03150000  0.75167494  1
  N  N645  1  0.09350000  0.15650000  0.77107640  1
  N  N646  1  0.03150000  0.46850000  0.76330338  1
  N  N647  1  0.09350000  0.34350000  0.77499401  1
  N  N648  1  0.21850000  0.03150000  0.77884942  1
  N  N649  1  0.40650000  0.09350000  0.77107640  1
  N  N650  1  0.21850000  0.46850000  0.76722098  1
  N  N651  1  0.40650000  0.40650000  0.77499401  1
  N  N652  1  0.15650000  0.15650000  0.75944796  1
  N  N653  1  0.28150000  0.21850000  0.77884942  1
  N  N654  1  0.34350000  0.09350000  0.75944796  1
  N  N655  1  0.34350000  0.40650000  0.75553036  1
  N  N656  1  0.28150000  0.28150000  0.76722098  1
  N  N657  1  0.46850000  0.28150000  0.76330338  1
  N  N658  1  0.15650000  0.34350000  0.75553036  1
  N  N659  1  0.46850000  0.21850000  0.75167494  1
  Zr  Zr660  1  0.12500000  0.18750000  0.74971613  1
  Zr  Zr661  1  0.00000000  0.12500000  0.76137567  1
  Zr  Zr662  1  0.12500000  0.31250000  0.76526218  1
  Zr  Zr663  1  0.00000000  0.37500000  0.75360265  1
  Zr  Zr664  1  0.25000000  0.12500000  0.76914869  1
  Zr  Zr665  1  0.37500000  0.43750000  0.76526218  1
  Zr  Zr666  1  0.25000000  0.37500000  0.77692172  1
  Zr  Zr667  1  0.37500000  0.06250000  0.74971613  1
  Zr  Zr668  1  0.18750000  0.00000000  0.75748916  1
  Zr  Zr669  1  0.06250000  0.00000000  0.77303520  1
  Zr  Zr670  1  0.31250000  0.25000000  0.75748916  1
  Zr  Zr671  1  0.43750000  0.25000000  0.77303520  1
  N  N672  1  0.03150000  0.03150000  0.78276703  1
  N  N673  1  0.09350000  0.15650000  0.80216849  1
  N  N674  1  0.03150000  0.46850000  0.79439547  1
  N  N675  1  0.09350000  0.34350000  0.80608610  1
  N  N676  1  0.21850000  0.03150000  0.80994152  1
  N  N677  1  0.40650000  0.09350000  0.80216849  1
  N  N678  1  0.21850000  0.46850000  0.79831307  1
  N  N679  1  0.40650000  0.40650000  0.80608610  1
  N  N680  1  0.15650000  0.15650000  0.79054005  1
  N  N681  1  0.28150000  0.21850000  0.80994152  1
  N  N682  1  0.34350000  0.09350000  0.79054005  1
  N  N683  1  0.34350000  0.40650000  0.78662245  1
  N  N684  1  0.28150000  0.28150000  0.79831307  1
  N  N685  1  0.46850000  0.28150000  0.79439547  1
  N  N686  1  0.15650000  0.34350000  0.78662245  1
  N  N687  1  0.46850000  0.21850000  0.78276703  1
  Zr  Zr688  1  0.12500000  0.18750000  0.78080823  1
  Zr  Zr689  1  0.00000000  0.12500000  0.79246776  1
  Zr  Zr690  1  0.12500000  0.31250000  0.79635427  1
  Zr  Zr691  1  0.00000000  0.37500000  0.78469474  1
  Zr  Zr692  1  0.25000000  0.12500000  0.80024078  1
  Zr  Zr693  1  0.37500000  0.43750000  0.79635427  1
  Zr  Zr694  1  0.25000000  0.37500000  0.80801381  1
  Zr  Zr695  1  0.37500000  0.06250000  0.78080823  1
  Zr  Zr696  1  0.18750000  0.00000000  0.78858125  1
  Zr  Zr697  1  0.06250000  0.00000000  0.80412730  1
  Zr  Zr698  1  0.31250000  0.25000000  0.78858125  1
  Zr  Zr699  1  0.43750000  0.25000000  0.80412730  1
  N  N700  1  0.03150000  0.03150000  0.81385912  1
  N  N701  1  0.09350000  0.15650000  0.83326059  1
  N  N702  1  0.03150000  0.46850000  0.82548756  1
  N  N703  1  0.09350000  0.34350000  0.83717819  1
  N  N704  1  0.21850000  0.03150000  0.84103361  1
  N  N705  1  0.40650000  0.09350000  0.83326059  1
  N  N706  1  0.21850000  0.46850000  0.82940517  1
  N  N707  1  0.40650000  0.40650000  0.83717819  1
  N  N708  1  0.15650000  0.15650000  0.82163214  1
  N  N709  1  0.28150000  0.21850000  0.84103361  1
  N  N710  1  0.34350000  0.09350000  0.82163214  1
  N  N711  1  0.34350000  0.40650000  0.81771454  1
  N  N712  1  0.28150000  0.28150000  0.82940517  1
  N  N713  1  0.46850000  0.28150000  0.82548756  1
  N  N714  1  0.15650000  0.34350000  0.81771454  1
  N  N715  1  0.46850000  0.21850000  0.81385912  1
  Zr  Zr716  1  0.12500000  0.18750000  0.81190032  1
  Zr  Zr717  1  0.00000000  0.12500000  0.82355985  1
  Zr  Zr718  1  0.12500000  0.31250000  0.82744636  1
  Zr  Zr719  1  0.00000000  0.37500000  0.81578683  1
  Zr  Zr720  1  0.25000000  0.12500000  0.83133288  1
  Zr  Zr721  1  0.37500000  0.43750000  0.82744636  1
  Zr  Zr722  1  0.25000000  0.37500000  0.83910590  1
  Zr  Zr723  1  0.37500000  0.06250000  0.81190032  1
  Zr  Zr724  1  0.18750000  0.00000000  0.81967334  1
  Zr  Zr725  1  0.06250000  0.00000000  0.83521939  1
  Zr  Zr726  1  0.31250000  0.25000000  0.81967334  1
  Zr  Zr727  1  0.43750000  0.25000000  0.83521939  1
  N  N728  1  0.03150000  0.03150000  0.84495121  1
  N  N729  1  0.09350000  0.15650000  0.86435268  1
  N  N730  1  0.03150000  0.46850000  0.85657965  1
  N  N731  1  0.09350000  0.34350000  0.86827028  1
  N  N732  1  0.21850000  0.03150000  0.87212570  1
  N  N733  1  0.40650000  0.09350000  0.86435268  1
  N  N734  1  0.21850000  0.46850000  0.86049726  1
  N  N735  1  0.40650000  0.40650000  0.86827028  1
  N  N736  1  0.15650000  0.15650000  0.85272423  1
  N  N737  1  0.28150000  0.21850000  0.87212570  1
  N  N738  1  0.34350000  0.09350000  0.85272423  1
  N  N739  1  0.34350000  0.40650000  0.84880663  1
  N  N740  1  0.28150000  0.28150000  0.86049726  1
  N  N741  1  0.46850000  0.28150000  0.85657965  1
  N  N742  1  0.15650000  0.34350000  0.84880663  1
  N  N743  1  0.46850000  0.21850000  0.84495121  1
  Zr  Zr744  1  0.12500000  0.18750000  0.84299241  1
  Zr  Zr745  1  0.00000000  0.12500000  0.85465194  1
  Zr  Zr746  1  0.12500000  0.31250000  0.85853846  1
  Zr  Zr747  1  0.00000000  0.37500000  0.84687892  1
  Zr  Zr748  1  0.25000000  0.12500000  0.86242497  1
  Zr  Zr749  1  0.37500000  0.43750000  0.85853846  1
  Zr  Zr750  1  0.25000000  0.37500000  0.87019799  1
  Zr  Zr751  1  0.37500000  0.06250000  0.84299241  1
  Zr  Zr752  1  0.18750000  0.00000000  0.85076543  1
  Zr  Zr753  1  0.06250000  0.00000000  0.86631148  1
  Zr  Zr754  1  0.31250000  0.25000000  0.85076543  1
  Zr  Zr755  1  0.43750000  0.25000000  0.86631148  1
  N  N756  1  0.03150000  0.03150000  0.87604330  1
  N  N757  1  0.09350000  0.15650000  0.89544477  1
  N  N758  1  0.03150000  0.46850000  0.88767175  1
  N  N759  1  0.09350000  0.34350000  0.89936237  1
  N  N760  1  0.21850000  0.03150000  0.90321779  1
  N  N761  1  0.40650000  0.09350000  0.89544477  1
  N  N762  1  0.21850000  0.46850000  0.89158935  1
  N  N763  1  0.40650000  0.40650000  0.89936237  1
  N  N764  1  0.15650000  0.15650000  0.88381633  1
  N  N765  1  0.28150000  0.21850000  0.90321779  1
  N  N766  1  0.34350000  0.09350000  0.88381633  1
  N  N767  1  0.34350000  0.40650000  0.87989872  1
  N  N768  1  0.28150000  0.28150000  0.89158935  1
  N  N769  1  0.46850000  0.28150000  0.88767175  1
  N  N770  1  0.15650000  0.34350000  0.87989872  1
  N  N771  1  0.46850000  0.21850000  0.87604330  1
  Zr  Zr772  1  0.12500000  0.18750000  0.87408450  1
  Zr  Zr773  1  0.00000000  0.12500000  0.88574404  1
  Zr  Zr774  1  0.12500000  0.31250000  0.88963055  1
  Zr  Zr775  1  0.00000000  0.37500000  0.87797101  1
  Zr  Zr776  1  0.25000000  0.12500000  0.89351706  1
  Zr  Zr777  1  0.37500000  0.43750000  0.88963055  1
  Zr  Zr778  1  0.25000000  0.37500000  0.90129008  1
  Zr  Zr779  1  0.37500000  0.06250000  0.87408450  1
  Zr  Zr780  1  0.18750000  0.00000000  0.88185752  1
  Zr  Zr781  1  0.06250000  0.00000000  0.89740357  1
  Zr  Zr782  1  0.31250000  0.25000000  0.88185752  1
  Zr  Zr783  1  0.43750000  0.25000000  0.89740357  1
  N  N784  1  0.03150000  0.03150000  0.90713540  1
  N  N785  1  0.09350000  0.15650000  0.92653686  1
  N  N786  1  0.03150000  0.46850000  0.91876384  1
  N  N787  1  0.09350000  0.34350000  0.93045446  1
  N  N788  1  0.21850000  0.03150000  0.93430988  1
  N  N789  1  0.40650000  0.09350000  0.92653686  1
  N  N790  1  0.21850000  0.46850000  0.92268144  1
  N  N791  1  0.40650000  0.40650000  0.93045446  1
  N  N792  1  0.15650000  0.15650000  0.91490842  1
  N  N793  1  0.28150000  0.21850000  0.93430988  1
  N  N794  1  0.34350000  0.09350000  0.91490842  1
  N  N795  1  0.34350000  0.40650000  0.91099081  1
  N  N796  1  0.28150000  0.28150000  0.92268144  1
  N  N797  1  0.46850000  0.28150000  0.91876384  1
  N  N798  1  0.15650000  0.34350000  0.91099081  1
  N  N799  1  0.46850000  0.21850000  0.90713540  1
  Zr  Zr800  1  0.12500000  0.18750000  0.90517659  1
  Zr  Zr801  1  0.00000000  0.12500000  0.91683613  1
  Zr  Zr802  1  0.12500000  0.31250000  0.92072264  1
  Zr  Zr803  1  0.00000000  0.37500000  0.90906310  1
  Zr  Zr804  1  0.25000000  0.12500000  0.92460915  1
  Zr  Zr805  1  0.37500000  0.43750000  0.92072264  1
  Zr  Zr806  1  0.25000000  0.37500000  0.93238217  1
  Zr  Zr807  1  0.37500000  0.06250000  0.90517659  1
  Zr  Zr808  1  0.18750000  0.00000000  0.91294962  1
  Zr  Zr809  1  0.06250000  0.00000000  0.92849566  1
  Zr  Zr810  1  0.31250000  0.25000000  0.91294962  1
  Zr  Zr811  1  0.43750000  0.25000000  0.92849566  1
  N  N812  1  0.03150000  0.03150000  0.93822749  1
  N  N813  1  0.09350000  0.15650000  0.95762895  1
  N  N814  1  0.03150000  0.46850000  0.94985593  1
  N  N815  1  0.09350000  0.34350000  0.96154656  1
  N  N816  1  0.21850000  0.03150000  0.96540198  1
  N  N817  1  0.40650000  0.09350000  0.95762895  1
  N  N818  1  0.21850000  0.46850000  0.95377353  1
  N  N819  1  0.40650000  0.40650000  0.96154656  1
  N  N820  1  0.15650000  0.15650000  0.94600051  1
  N  N821  1  0.28150000  0.21850000  0.96540198  1
  N  N822  1  0.34350000  0.09350000  0.94600051  1
  N  N823  1  0.34350000  0.40650000  0.94208291  1
  N  N824  1  0.28150000  0.28150000  0.95377353  1
  N  N825  1  0.46850000  0.28150000  0.94985593  1
  N  N826  1  0.15650000  0.34350000  0.94208291  1
  N  N827  1  0.46850000  0.21850000  0.93822749  1
  Zr  Zr828  1  0.12500000  0.18750000  0.93626869  1
  Zr  Zr829  1  0.00000000  0.12500000  0.94792822  1
  Zr  Zr830  1  0.12500000  0.31250000  0.95181473  1
  Zr  Zr831  1  0.00000000  0.37500000  0.94015520  1
  Zr  Zr832  1  0.25000000  0.12500000  0.95570124  1
  Zr  Zr833  1  0.37500000  0.43750000  0.95181473  1
  Zr  Zr834  1  0.25000000  0.37500000  0.96347427  1
  Zr  Zr835  1  0.37500000  0.06250000  0.93626869  1
  Zr  Zr836  1  0.18750000  0.00000000  0.94404171  1
  Zr  Zr837  1  0.06250000  0.00000000  0.95958775  1
  Zr  Zr838  1  0.31250000  0.25000000  0.94404171  1
  Zr  Zr839  1  0.43750000  0.25000000  0.95958775  1
  N  N840  1  0.03150000  0.53150000  0.03655683  1
  N  N841  1  0.09350000  0.65650000  0.05595829  1
  N  N842  1  0.03150000  0.96850000  0.04818527  1
  N  N843  1  0.09350000  0.84350000  0.05987590  1
  N  N844  1  0.21850000  0.53150000  0.06373131  1
  N  N845  1  0.40650000  0.59350000  0.05595829  1
  N  N846  1  0.21850000  0.96850000  0.05210287  1
  N  N847  1  0.40650000  0.90650000  0.05987590  1
  N  N848  1  0.15650000  0.65650000  0.04432985  1
  N  N849  1  0.28150000  0.71850000  0.06373131  1
  N  N850  1  0.34350000  0.59350000  0.04432985  1
  N  N851  1  0.34350000  0.90650000  0.04041225  1
  N  N852  1  0.28150000  0.78150000  0.05210287  1
  N  N853  1  0.46850000  0.78150000  0.04818527  1
  N  N854  1  0.15650000  0.84350000  0.04041225  1
  N  N855  1  0.46850000  0.71850000  0.03655683  1
  Zr  Zr856  1  0.12500000  0.68750000  0.03459802  1
  Zr  Zr857  1  0.00000000  0.62500000  0.04625756  1
  Zr  Zr858  1  0.12500000  0.81250000  0.05014407  1
  Zr  Zr859  1  0.00000000  0.87500000  0.03848454  1
  Zr  Zr860  1  0.25000000  0.62500000  0.05403058  1
  Zr  Zr861  1  0.37500000  0.93750000  0.05014407  1
  Zr  Zr862  1  0.25000000  0.87500000  0.06180361  1
  Zr  Zr863  1  0.37500000  0.56250000  0.03459802  1
  Zr  Zr864  1  0.18750000  0.50000000  0.04237105  1
  Zr  Zr865  1  0.06250000  0.50000000  0.05791709  1
  Zr  Zr866  1  0.31250000  0.75000000  0.04237105  1
  Zr  Zr867  1  0.43750000  0.75000000  0.05791709  1
  N  N868  1  0.03150000  0.53150000  0.06764892  1
  N  N869  1  0.09350000  0.65650000  0.08705038  1
  N  N870  1  0.03150000  0.96850000  0.07927736  1
  N  N871  1  0.09350000  0.84350000  0.09096799  1
  N  N872  1  0.21850000  0.53150000  0.09482341  1
  N  N873  1  0.40650000  0.59350000  0.08705038  1
  N  N874  1  0.21850000  0.96850000  0.08319496  1
  N  N875  1  0.40650000  0.90650000  0.09096799  1
  N  N876  1  0.15650000  0.65650000  0.07542194  1
  N  N877  1  0.28150000  0.71850000  0.09482341  1
  N  N878  1  0.34350000  0.59350000  0.07542194  1
  N  N879  1  0.34350000  0.90650000  0.07150434  1
  N  N880  1  0.28150000  0.78150000  0.08319496  1
  N  N881  1  0.46850000  0.78150000  0.07927736  1
  N  N882  1  0.15650000  0.84350000  0.07150434  1
  N  N883  1  0.46850000  0.71850000  0.06764892  1
  Zr  Zr884  1  0.12500000  0.68750000  0.06569012  1
  Zr  Zr885  1  0.00000000  0.62500000  0.07734965  1
  Zr  Zr886  1  0.12500000  0.81250000  0.08123616  1
  Zr  Zr887  1  0.00000000  0.87500000  0.06957663  1
  Zr  Zr888  1  0.25000000  0.62500000  0.08512267  1
  Zr  Zr889  1  0.37500000  0.93750000  0.08123616  1
  Zr  Zr890  1  0.25000000  0.87500000  0.09289570  1
  Zr  Zr891  1  0.37500000  0.56250000  0.06569012  1
  Zr  Zr892  1  0.18750000  0.50000000  0.07346314  1
  Zr  Zr893  1  0.06250000  0.50000000  0.08900919  1
  Zr  Zr894  1  0.31250000  0.75000000  0.07346314  1
  Zr  Zr895  1  0.43750000  0.75000000  0.08900919  1
  N  N896  1  0.03150000  0.53150000  0.09874101  1
  N  N897  1  0.09350000  0.65650000  0.11814248  1
  N  N898  1  0.03150000  0.96850000  0.11036945  1
  N  N899  1  0.09350000  0.84350000  0.12206008  1
  N  N900  1  0.21850000  0.53150000  0.12591550  1
  N  N901  1  0.40650000  0.59350000  0.11814248  1
  N  N902  1  0.21850000  0.96850000  0.11428706  1
  N  N903  1  0.40650000  0.90650000  0.12206008  1
  N  N904  1  0.15650000  0.65650000  0.10651403  1
  N  N905  1  0.28150000  0.71850000  0.12591550  1
  N  N906  1  0.34350000  0.59350000  0.10651403  1
  N  N907  1  0.34350000  0.90650000  0.10259643  1
  N  N908  1  0.28150000  0.78150000  0.11428706  1
  N  N909  1  0.46850000  0.78150000  0.11036945  1
  N  N910  1  0.15650000  0.84350000  0.10259643  1
  N  N911  1  0.46850000  0.71850000  0.09874101  1
  Zr  Zr912  1  0.12500000  0.68750000  0.09678221  1
  Zr  Zr913  1  0.00000000  0.62500000  0.10844174  1
  Zr  Zr914  1  0.12500000  0.81250000  0.11232825  1
  Zr  Zr915  1  0.00000000  0.87500000  0.10066872  1
  Zr  Zr916  1  0.25000000  0.62500000  0.11621477  1
  Zr  Zr917  1  0.37500000  0.93750000  0.11232825  1
  Zr  Zr918  1  0.25000000  0.87500000  0.12398779  1
  Zr  Zr919  1  0.37500000  0.56250000  0.09678221  1
  Zr  Zr920  1  0.18750000  0.50000000  0.10455523  1
  Zr  Zr921  1  0.06250000  0.50000000  0.12010128  1
  Zr  Zr922  1  0.31250000  0.75000000  0.10455523  1
  Zr  Zr923  1  0.43750000  0.75000000  0.12010128  1
  N  N924  1  0.03150000  0.53150000  0.12983310  1
  N  N925  1  0.09350000  0.65650000  0.14923457  1
  N  N926  1  0.03150000  0.96850000  0.14146154  1
  N  N927  1  0.09350000  0.84350000  0.15315217  1
  N  N928  1  0.21850000  0.53150000  0.15700759  1
  N  N929  1  0.40650000  0.59350000  0.14923457  1
  N  N930  1  0.21850000  0.96850000  0.14537915  1
  N  N931  1  0.40650000  0.90650000  0.15315217  1
  N  N932  1  0.15650000  0.65650000  0.13760612  1
  N  N933  1  0.28150000  0.71850000  0.15700759  1
  N  N934  1  0.34350000  0.59350000  0.13760612  1
  N  N935  1  0.34350000  0.90650000  0.13368852  1
  N  N936  1  0.28150000  0.78150000  0.14537915  1
  N  N937  1  0.46850000  0.78150000  0.14146154  1
  N  N938  1  0.15650000  0.84350000  0.13368852  1
  N  N939  1  0.46850000  0.71850000  0.12983310  1
  Zr  Zr940  1  0.12500000  0.68750000  0.12787430  1
  Zr  Zr941  1  0.00000000  0.62500000  0.13953383  1
  Zr  Zr942  1  0.12500000  0.81250000  0.14342035  1
  Zr  Zr943  1  0.00000000  0.87500000  0.13176081  1
  Zr  Zr944  1  0.25000000  0.62500000  0.14730686  1
  Zr  Zr945  1  0.37500000  0.93750000  0.14342035  1
  Zr  Zr946  1  0.25000000  0.87500000  0.15507988  1
  Zr  Zr947  1  0.37500000  0.56250000  0.12787430  1
  Zr  Zr948  1  0.18750000  0.50000000  0.13564732  1
  Zr  Zr949  1  0.06250000  0.50000000  0.15119337  1
  Zr  Zr950  1  0.31250000  0.75000000  0.13564732  1
  Zr  Zr951  1  0.43750000  0.75000000  0.15119337  1
  N  N952  1  0.03150000  0.53150000  0.16092519  1
  N  N953  1  0.09350000  0.65650000  0.18032666  1
  N  N954  1  0.03150000  0.96850000  0.17255364  1
  N  N955  1  0.09350000  0.84350000  0.18424426  1
  N  N956  1  0.21850000  0.53150000  0.18809968  1
  N  N957  1  0.40650000  0.59350000  0.18032666  1
  N  N958  1  0.21850000  0.96850000  0.17647124  1
  N  N959  1  0.40650000  0.90650000  0.18424426  1
  N  N960  1  0.15650000  0.65650000  0.16869822  1
  N  N961  1  0.28150000  0.71850000  0.18809968  1
  N  N962  1  0.34350000  0.59350000  0.16869822  1
  N  N963  1  0.34350000  0.90650000  0.16478061  1
  N  N964  1  0.28150000  0.78150000  0.17647124  1
  N  N965  1  0.46850000  0.78150000  0.17255364  1
  N  N966  1  0.15650000  0.84350000  0.16478061  1
  N  N967  1  0.46850000  0.71850000  0.16092519  1
  Zr  Zr968  1  0.12500000  0.68750000  0.15896639  1
  Zr  Zr969  1  0.00000000  0.62500000  0.17062593  1
  Zr  Zr970  1  0.12500000  0.81250000  0.17451244  1
  Zr  Zr971  1  0.00000000  0.87500000  0.16285290  1
  Zr  Zr972  1  0.25000000  0.62500000  0.17839895  1
  Zr  Zr973  1  0.37500000  0.93750000  0.17451244  1
  Zr  Zr974  1  0.25000000  0.87500000  0.18617197  1
  Zr  Zr975  1  0.37500000  0.56250000  0.15896639  1
  Zr  Zr976  1  0.18750000  0.50000000  0.16673941  1
  Zr  Zr977  1  0.06250000  0.50000000  0.18228546  1
  Zr  Zr978  1  0.31250000  0.75000000  0.16673941  1
  Zr  Zr979  1  0.43750000  0.75000000  0.18228546  1
  N  N980  1  0.03150000  0.53150000  0.19201729  1
  N  N981  1  0.09350000  0.65650000  0.21141875  1
  N  N982  1  0.03150000  0.96850000  0.20364573  1
  N  N983  1  0.09350000  0.84350000  0.21533635  1
  N  N984  1  0.21850000  0.53150000  0.21919177  1
  N  N985  1  0.40650000  0.59350000  0.21141875  1
  N  N986  1  0.21850000  0.96850000  0.20756333  1
  N  N987  1  0.40650000  0.90650000  0.21533635  1
  N  N988  1  0.15650000  0.65650000  0.19979031  1
  N  N989  1  0.28150000  0.71850000  0.21919177  1
  N  N990  1  0.34350000  0.59350000  0.19979031  1
  N  N991  1  0.34350000  0.90650000  0.19587270  1
  N  N992  1  0.28150000  0.78150000  0.20756333  1
  N  N993  1  0.46850000  0.78150000  0.20364573  1
  N  N994  1  0.15650000  0.84350000  0.19587270  1
  N  N995  1  0.46850000  0.71850000  0.19201729  1
  Zr  Zr996  1  0.12500000  0.68750000  0.19005848  1
  Zr  Zr997  1  0.00000000  0.62500000  0.20171802  1
  Zr  Zr998  1  0.12500000  0.81250000  0.20560453  1
  Zr  Zr999  1  0.00000000  0.87500000  0.19394500  1
  Zr  Zr1000  1  0.25000000  0.62500000  0.20949104  1
  Zr  Zr1001  1  0.37500000  0.93750000  0.20560453  1
  Zr  Zr1002  1  0.25000000  0.87500000  0.21726406  1
  Zr  Zr1003  1  0.37500000  0.56250000  0.19005848  1
  Zr  Zr1004  1  0.18750000  0.50000000  0.19783151  1
  Zr  Zr1005  1  0.06250000  0.50000000  0.21337755  1
  Zr  Zr1006  1  0.31250000  0.75000000  0.19783151  1
  Zr  Zr1007  1  0.43750000  0.75000000  0.21337755  1
  N  N1008  1  0.03150000  0.53150000  0.22310938  1
  N  N1009  1  0.09350000  0.65650000  0.24251084  1
  N  N1010  1  0.03150000  0.96850000  0.23473782  1
  N  N1011  1  0.09350000  0.84350000  0.24642845  1
  N  N1012  1  0.21850000  0.53150000  0.25028387  1
  N  N1013  1  0.40650000  0.59350000  0.24251084  1
  N  N1014  1  0.21850000  0.96850000  0.23865542  1
  N  N1015  1  0.40650000  0.90650000  0.24642845  1
  N  N1016  1  0.15650000  0.65650000  0.23088240  1
  N  N1017  1  0.28150000  0.71850000  0.25028387  1
  N  N1018  1  0.34350000  0.59350000  0.23088240  1
  N  N1019  1  0.34350000  0.90650000  0.22696480  1
  N  N1020  1  0.28150000  0.78150000  0.23865542  1
  N  N1021  1  0.46850000  0.78150000  0.23473782  1
  N  N1022  1  0.15650000  0.84350000  0.22696480  1
  N  N1023  1  0.46850000  0.71850000  0.22310938  1
  Zr  Zr1024  1  0.12500000  0.68750000  0.22115058  1
  Zr  Zr1025  1  0.00000000  0.62500000  0.23281011  1
  Zr  Zr1026  1  0.12500000  0.81250000  0.23669662  1
  Zr  Zr1027  1  0.00000000  0.87500000  0.22503709  1
  Zr  Zr1028  1  0.25000000  0.62500000  0.24058313  1
  Zr  Zr1029  1  0.37500000  0.93750000  0.23669662  1
  Zr  Zr1030  1  0.25000000  0.87500000  0.24835616  1
  Zr  Zr1031  1  0.37500000  0.56250000  0.22115058  1
  Zr  Zr1032  1  0.18750000  0.50000000  0.22892360  1
  Zr  Zr1033  1  0.06250000  0.50000000  0.24446964  1
  Zr  Zr1034  1  0.31250000  0.75000000  0.22892360  1
  Zr  Zr1035  1  0.43750000  0.75000000  0.24446964  1
  N  N1036  1  0.03150000  0.53150000  0.25420147  1
  N  N1037  1  0.09350000  0.65650000  0.27360293  1
  N  N1038  1  0.03150000  0.96850000  0.26582991  1
  N  N1039  1  0.09350000  0.84350000  0.27752054  1
  N  N1040  1  0.21850000  0.53150000  0.28137596  1
  N  N1041  1  0.40650000  0.59350000  0.27360293  1
  N  N1042  1  0.21850000  0.96850000  0.26974751  1
  N  N1043  1  0.40650000  0.90650000  0.27752054  1
  N  N1044  1  0.15650000  0.65650000  0.26197449  1
  N  N1045  1  0.28150000  0.71850000  0.28137596  1
  N  N1046  1  0.34350000  0.59350000  0.26197449  1
  N  N1047  1  0.34350000  0.90650000  0.25805689  1
  N  N1048  1  0.28150000  0.78150000  0.26974751  1
  N  N1049  1  0.46850000  0.78150000  0.26582991  1
  N  N1050  1  0.15650000  0.84350000  0.25805689  1
  N  N1051  1  0.46850000  0.71850000  0.25420147  1
  Zr  Zr1052  1  0.12500000  0.68750000  0.25224267  1
  Zr  Zr1053  1  0.00000000  0.62500000  0.26390220  1
  Zr  Zr1054  1  0.12500000  0.81250000  0.26778871  1
  Zr  Zr1055  1  0.00000000  0.87500000  0.25612918  1
  Zr  Zr1056  1  0.25000000  0.62500000  0.27167522  1
  Zr  Zr1057  1  0.37500000  0.93750000  0.26778871  1
  Zr  Zr1058  1  0.25000000  0.87500000  0.27944825  1
  Zr  Zr1059  1  0.37500000  0.56250000  0.25224267  1
  Zr  Zr1060  1  0.18750000  0.50000000  0.26001569  1
  Zr  Zr1061  1  0.06250000  0.50000000  0.27556174  1
  Zr  Zr1062  1  0.31250000  0.75000000  0.26001569  1
  Zr  Zr1063  1  0.43750000  0.75000000  0.27556174  1
  N  N1064  1  0.03150000  0.53150000  0.28529356  1
  N  N1065  1  0.09350000  0.65650000  0.30469503  1
  N  N1066  1  0.03150000  0.96850000  0.29692200  1
  N  N1067  1  0.09350000  0.84350000  0.30861263  1
  N  N1068  1  0.21850000  0.53150000  0.31246805  1
  N  N1069  1  0.40650000  0.59350000  0.30469503  1
  N  N1070  1  0.21850000  0.96850000  0.30083961  1
  N  N1071  1  0.40650000  0.90650000  0.30861263  1
  N  N1072  1  0.15650000  0.65650000  0.29306658  1
  N  N1073  1  0.28150000  0.71850000  0.31246805  1
  N  N1074  1  0.34350000  0.59350000  0.29306658  1
  N  N1075  1  0.34350000  0.90650000  0.28914898  1
  N  N1076  1  0.28150000  0.78150000  0.30083961  1
  N  N1077  1  0.46850000  0.78150000  0.29692200  1
  N  N1078  1  0.15650000  0.84350000  0.28914898  1
  N  N1079  1  0.46850000  0.71850000  0.28529356  1
  Zr  Zr1080  1  0.12500000  0.68750000  0.28333476  1
  Zr  Zr1081  1  0.00000000  0.62500000  0.29499429  1
  Zr  Zr1082  1  0.12500000  0.81250000  0.29888080  1
  Zr  Zr1083  1  0.00000000  0.87500000  0.28722127  1
  Zr  Zr1084  1  0.25000000  0.62500000  0.30276732  1
  Zr  Zr1085  1  0.37500000  0.93750000  0.29888080  1
  Zr  Zr1086  1  0.25000000  0.87500000  0.31054034  1
  Zr  Zr1087  1  0.37500000  0.56250000  0.28333476  1
  Zr  Zr1088  1  0.18750000  0.50000000  0.29110778  1
  Zr  Zr1089  1  0.06250000  0.50000000  0.30665383  1
  Zr  Zr1090  1  0.31250000  0.75000000  0.29110778  1
  Zr  Zr1091  1  0.43750000  0.75000000  0.30665383  1
  N  N1092  1  0.03150000  0.53150000  0.31638565  1
  N  N1093  1  0.09350000  0.65650000  0.33578712  1
  N  N1094  1  0.03150000  0.96850000  0.32801409  1
  N  N1095  1  0.09350000  0.84350000  0.33970472  1
  N  N1096  1  0.21850000  0.53150000  0.34356014  1
  N  N1097  1  0.40650000  0.59350000  0.33578712  1
  N  N1098  1  0.21850000  0.96850000  0.33193170  1
  N  N1099  1  0.40650000  0.90650000  0.33970472  1
  N  N1100  1  0.15650000  0.65650000  0.32415868  1
  N  N1101  1  0.28150000  0.71850000  0.34356014  1
  N  N1102  1  0.34350000  0.59350000  0.32415868  1
  N  N1103  1  0.34350000  0.90650000  0.32024107  1
  N  N1104  1  0.28150000  0.78150000  0.33193170  1
  N  N1105  1  0.46850000  0.78150000  0.32801409  1
  N  N1106  1  0.15650000  0.84350000  0.32024107  1
  N  N1107  1  0.46850000  0.71850000  0.31638565  1
  Zr  Zr1108  1  0.12500000  0.68750000  0.31442685  1
  Zr  Zr1109  1  0.00000000  0.62500000  0.32608638  1
  Zr  Zr1110  1  0.12500000  0.81250000  0.32997290  1
  Zr  Zr1111  1  0.00000000  0.87500000  0.31831336  1
  Zr  Zr1112  1  0.25000000  0.62500000  0.33385941  1
  Zr  Zr1113  1  0.37500000  0.93750000  0.32997290  1
  Zr  Zr1114  1  0.25000000  0.87500000  0.34163243  1
  Zr  Zr1115  1  0.37500000  0.56250000  0.31442685  1
  Zr  Zr1116  1  0.18750000  0.50000000  0.32219987  1
  Zr  Zr1117  1  0.06250000  0.50000000  0.33774592  1
  Zr  Zr1118  1  0.31250000  0.75000000  0.32219987  1
  Zr  Zr1119  1  0.43750000  0.75000000  0.33774592  1
  N  N1120  1  0.03150000  0.53150000  0.34747774  1
  N  N1121  1  0.09350000  0.65650000  0.36687921  1
  N  N1122  1  0.03150000  0.96850000  0.35910619  1
  N  N1123  1  0.09350000  0.84350000  0.37079681  1
  N  N1124  1  0.21850000  0.53150000  0.37465223  1
  N  N1125  1  0.40650000  0.59350000  0.36687921  1
  N  N1126  1  0.21850000  0.96850000  0.36302379  1
  N  N1127  1  0.40650000  0.90650000  0.37079681  1
  N  N1128  1  0.15650000  0.65650000  0.35525077  1
  N  N1129  1  0.28150000  0.71850000  0.37465223  1
  N  N1130  1  0.34350000  0.59350000  0.35525077  1
  N  N1131  1  0.34350000  0.90650000  0.35133316  1
  N  N1132  1  0.28150000  0.78150000  0.36302379  1
  N  N1133  1  0.46850000  0.78150000  0.35910619  1
  N  N1134  1  0.15650000  0.84350000  0.35133316  1
  N  N1135  1  0.46850000  0.71850000  0.34747774  1
  Zr  Zr1136  1  0.12500000  0.68750000  0.34551894  1
  Zr  Zr1137  1  0.00000000  0.62500000  0.35717848  1
  Zr  Zr1138  1  0.12500000  0.81250000  0.36106499  1
  Zr  Zr1139  1  0.00000000  0.87500000  0.34940545  1
  Zr  Zr1140  1  0.25000000  0.62500000  0.36495150  1
  Zr  Zr1141  1  0.37500000  0.93750000  0.36106499  1
  Zr  Zr1142  1  0.25000000  0.87500000  0.37272452  1
  Zr  Zr1143  1  0.37500000  0.56250000  0.34551894  1
  Zr  Zr1144  1  0.18750000  0.50000000  0.35329197  1
  Zr  Zr1145  1  0.06250000  0.50000000  0.36883801  1
  Zr  Zr1146  1  0.31250000  0.75000000  0.35329197  1
  Zr  Zr1147  1  0.43750000  0.75000000  0.36883801  1
  N  N1148  1  0.03150000  0.53150000  0.37856984  1
  N  N1149  1  0.09350000  0.65650000  0.39797130  1
  N  N1150  1  0.03150000  0.96850000  0.39019828  1
  N  N1151  1  0.09350000  0.84350000  0.40188890  1
  N  N1152  1  0.21850000  0.53150000  0.40574432  1
  N  N1153  1  0.40650000  0.59350000  0.39797130  1
  N  N1154  1  0.21850000  0.96850000  0.39411588  1
  N  N1155  1  0.40650000  0.90650000  0.40188890  1
  N  N1156  1  0.15650000  0.65650000  0.38634286  1
  N  N1157  1  0.28150000  0.71850000  0.40574432  1
  N  N1158  1  0.34350000  0.59350000  0.38634286  1
  N  N1159  1  0.34350000  0.90650000  0.38242526  1
  N  N1160  1  0.28150000  0.78150000  0.39411588  1
  N  N1161  1  0.46850000  0.78150000  0.39019828  1
  N  N1162  1  0.15650000  0.84350000  0.38242526  1
  N  N1163  1  0.46850000  0.71850000  0.37856984  1
  Zr  Zr1164  1  0.12500000  0.68750000  0.37661103  1
  Zr  Zr1165  1  0.00000000  0.62500000  0.38827057  1
  Zr  Zr1166  1  0.12500000  0.81250000  0.39215708  1
  Zr  Zr1167  1  0.00000000  0.87500000  0.38049755  1
  Zr  Zr1168  1  0.25000000  0.62500000  0.39604359  1
  Zr  Zr1169  1  0.37500000  0.93750000  0.39215708  1
  Zr  Zr1170  1  0.25000000  0.87500000  0.40381661  1
  Zr  Zr1171  1  0.37500000  0.56250000  0.37661103  1
  Zr  Zr1172  1  0.18750000  0.50000000  0.38438406  1
  Zr  Zr1173  1  0.06250000  0.50000000  0.39993010  1
  Zr  Zr1174  1  0.31250000  0.75000000  0.38438406  1
  Zr  Zr1175  1  0.43750000  0.75000000  0.39993010  1
  N  N1176  1  0.03150000  0.53150000  0.40966193  1
  N  N1177  1  0.09350000  0.65650000  0.42906339  1
  N  N1178  1  0.03150000  0.96850000  0.42129037  1
  N  N1179  1  0.09350000  0.84350000  0.43298100  1
  N  N1180  1  0.21850000  0.53150000  0.43683642  1
  N  N1181  1  0.40650000  0.59350000  0.42906339  1
  N  N1182  1  0.21850000  0.96850000  0.42520797  1
  N  N1183  1  0.40650000  0.90650000  0.43298100  1
  N  N1184  1  0.15650000  0.65650000  0.41743495  1
  N  N1185  1  0.28150000  0.71850000  0.43683642  1
  N  N1186  1  0.34350000  0.59350000  0.41743495  1
  N  N1187  1  0.34350000  0.90650000  0.41351735  1
  N  N1188  1  0.28150000  0.78150000  0.42520797  1
  N  N1189  1  0.46850000  0.78150000  0.42129037  1
  N  N1190  1  0.15650000  0.84350000  0.41351735  1
  N  N1191  1  0.46850000  0.71850000  0.40966193  1
  Zr  Zr1192  1  0.12500000  0.68750000  0.40770313  1
  Zr  Zr1193  1  0.00000000  0.62500000  0.41936266  1
  Zr  Zr1194  1  0.12500000  0.81250000  0.42324917  1
  Zr  Zr1195  1  0.00000000  0.87500000  0.41158964  1
  Zr  Zr1196  1  0.25000000  0.62500000  0.42713568  1
  Zr  Zr1197  1  0.37500000  0.93750000  0.42324917  1
  Zr  Zr1198  1  0.25000000  0.87500000  0.43490871  1
  Zr  Zr1199  1  0.37500000  0.56250000  0.40770313  1
  Zr  Zr1200  1  0.18750000  0.50000000  0.41547615  1
  Zr  Zr1201  1  0.06250000  0.50000000  0.43102219  1
  Zr  Zr1202  1  0.31250000  0.75000000  0.41547615  1
  Zr  Zr1203  1  0.43750000  0.75000000  0.43102219  1
  N  N1204  1  0.03150000  0.53150000  0.44075402  1
  N  N1205  1  0.09350000  0.65650000  0.46015548  1
  N  N1206  1  0.03150000  0.96850000  0.45238246  1
  N  N1207  1  0.09350000  0.84350000  0.46407309  1
  N  N1208  1  0.21850000  0.53150000  0.46792851  1
  N  N1209  1  0.40650000  0.59350000  0.46015548  1
  N  N1210  1  0.21850000  0.96850000  0.45630007  1
  N  N1211  1  0.40650000  0.90650000  0.46407309  1
  N  N1212  1  0.15650000  0.65650000  0.44852704  1
  N  N1213  1  0.28150000  0.71850000  0.46792851  1
  N  N1214  1  0.34350000  0.59350000  0.44852704  1
  N  N1215  1  0.34350000  0.90650000  0.44460944  1
  N  N1216  1  0.28150000  0.78150000  0.45630007  1
  N  N1217  1  0.46850000  0.78150000  0.45238246  1
  N  N1218  1  0.15650000  0.84350000  0.44460944  1
  N  N1219  1  0.46850000  0.71850000  0.44075402  1
  Zr  Zr1220  1  0.12500000  0.68750000  0.43879522  1
  Zr  Zr1221  1  0.00000000  0.62500000  0.45045475  1
  Zr  Zr1222  1  0.12500000  0.81250000  0.45434126  1
  Zr  Zr1223  1  0.00000000  0.87500000  0.44268173  1
  Zr  Zr1224  1  0.25000000  0.62500000  0.45822777  1
  Zr  Zr1225  1  0.37500000  0.93750000  0.45434126  1
  Zr  Zr1226  1  0.25000000  0.87500000  0.46600080  1
  Zr  Zr1227  1  0.37500000  0.56250000  0.43879522  1
  Zr  Zr1228  1  0.18750000  0.50000000  0.44656824  1
  Zr  Zr1229  1  0.06250000  0.50000000  0.46211429  1
  Zr  Zr1230  1  0.31250000  0.75000000  0.44656824  1
  Zr  Zr1231  1  0.43750000  0.75000000  0.46211429  1
  N  N1232  1  0.03150000  0.53150000  0.47184611  1
  N  N1233  1  0.09350000  0.65650000  0.49124758  1
  N  N1234  1  0.03150000  0.96850000  0.48347455  1
  N  N1235  1  0.09350000  0.84350000  0.49516518  1
  N  N1236  1  0.21850000  0.53150000  0.49902060  1
  N  N1237  1  0.40650000  0.59350000  0.49124758  1
  N  N1238  1  0.21850000  0.96850000  0.48739216  1
  N  N1239  1  0.40650000  0.90650000  0.49516518  1
  N  N1240  1  0.15650000  0.65650000  0.47961913  1
  N  N1241  1  0.28150000  0.71850000  0.49902060  1
  N  N1242  1  0.34350000  0.59350000  0.47961913  1
  N  N1243  1  0.34350000  0.90650000  0.47570153  1
  N  N1244  1  0.28150000  0.78150000  0.48739216  1
  N  N1245  1  0.46850000  0.78150000  0.48347455  1
  N  N1246  1  0.15650000  0.84350000  0.47570153  1
  N  N1247  1  0.46850000  0.71850000  0.47184611  1
  Zr  Zr1248  1  0.12500000  0.68750000  0.46988731  1
  Zr  Zr1249  1  0.00000000  0.62500000  0.48154684  1
  Zr  Zr1250  1  0.12500000  0.81250000  0.48543336  1
  Zr  Zr1251  1  0.00000000  0.87500000  0.47377382  1
  Zr  Zr1252  1  0.25000000  0.62500000  0.48931987  1
  Zr  Zr1253  1  0.37500000  0.93750000  0.48543336  1
  Zr  Zr1254  1  0.25000000  0.87500000  0.49709289  1
  Zr  Zr1255  1  0.37500000  0.56250000  0.46988731  1
  Zr  Zr1256  1  0.18750000  0.50000000  0.47766033  1
  Zr  Zr1257  1  0.06250000  0.50000000  0.49320638  1
  Zr  Zr1258  1  0.31250000  0.75000000  0.47766033  1
  Zr  Zr1259  1  0.43750000  0.75000000  0.49320638  1
  N  N1260  1  0.03150000  0.53150000  0.50293820  1
  N  N1261  1  0.09350000  0.65650000  0.52233967  1
  N  N1262  1  0.03150000  0.96850000  0.51456664  1
  N  N1263  1  0.09350000  0.84350000  0.52625727  1
  N  N1264  1  0.21850000  0.53150000  0.53011269  1
  N  N1265  1  0.40650000  0.59350000  0.52233967  1
  N  N1266  1  0.21850000  0.96850000  0.51848425  1
  N  N1267  1  0.40650000  0.90650000  0.52625727  1
  N  N1268  1  0.15650000  0.65650000  0.51071123  1
  N  N1269  1  0.28150000  0.71850000  0.53011269  1
  N  N1270  1  0.34350000  0.59350000  0.51071123  1
  N  N1271  1  0.34350000  0.90650000  0.50679362  1
  N  N1272  1  0.28150000  0.78150000  0.51848425  1
  N  N1273  1  0.46850000  0.78150000  0.51456664  1
  N  N1274  1  0.15650000  0.84350000  0.50679362  1
  N  N1275  1  0.46850000  0.71850000  0.50293820  1
  Zr  Zr1276  1  0.12500000  0.68750000  0.50097940  1
  Zr  Zr1277  1  0.00000000  0.62500000  0.51263894  1
  Zr  Zr1278  1  0.12500000  0.81250000  0.51652545  1
  Zr  Zr1279  1  0.00000000  0.87500000  0.50486591  1
  Zr  Zr1280  1  0.25000000  0.62500000  0.52041196  1
  Zr  Zr1281  1  0.37500000  0.93750000  0.51652545  1
  Zr  Zr1282  1  0.25000000  0.87500000  0.52818498  1
  Zr  Zr1283  1  0.37500000  0.56250000  0.50097940  1
  Zr  Zr1284  1  0.18750000  0.50000000  0.50875242  1
  Zr  Zr1285  1  0.06250000  0.50000000  0.52429847  1
  Zr  Zr1286  1  0.31250000  0.75000000  0.50875242  1
  Zr  Zr1287  1  0.43750000  0.75000000  0.52429847  1
  N  N1288  1  0.03150000  0.53150000  0.53403029  1
  N  N1289  1  0.09350000  0.65650000  0.55343176  1
  N  N1290  1  0.03150000  0.96850000  0.54565874  1
  N  N1291  1  0.09350000  0.84350000  0.55734936  1
  N  N1292  1  0.21850000  0.53150000  0.56120478  1
  N  N1293  1  0.40650000  0.59350000  0.55343176  1
  N  N1294  1  0.21850000  0.96850000  0.54957634  1
  N  N1295  1  0.40650000  0.90650000  0.55734936  1
  N  N1296  1  0.15650000  0.65650000  0.54180332  1
  N  N1297  1  0.28150000  0.71850000  0.56120478  1
  N  N1298  1  0.34350000  0.59350000  0.54180332  1
  N  N1299  1  0.34350000  0.90650000  0.53788571  1
  N  N1300  1  0.28150000  0.78150000  0.54957634  1
  N  N1301  1  0.46850000  0.78150000  0.54565874  1
  N  N1302  1  0.15650000  0.84350000  0.53788571  1
  N  N1303  1  0.46850000  0.71850000  0.53403029  1
  Zr  Zr1304  1  0.12500000  0.68750000  0.53207149  1
  Zr  Zr1305  1  0.00000000  0.62500000  0.54373103  1
  Zr  Zr1306  1  0.12500000  0.81250000  0.54761754  1
  Zr  Zr1307  1  0.00000000  0.87500000  0.53595800  1
  Zr  Zr1308  1  0.25000000  0.62500000  0.55150405  1
  Zr  Zr1309  1  0.37500000  0.93750000  0.54761754  1
  Zr  Zr1310  1  0.25000000  0.87500000  0.55927707  1
  Zr  Zr1311  1  0.37500000  0.56250000  0.53207149  1
  Zr  Zr1312  1  0.18750000  0.50000000  0.53984452  1
  Zr  Zr1313  1  0.06250000  0.50000000  0.55539056  1
  Zr  Zr1314  1  0.31250000  0.75000000  0.53984452  1
  Zr  Zr1315  1  0.43750000  0.75000000  0.55539056  1
  N  N1316  1  0.03150000  0.53150000  0.56512239  1
  N  N1317  1  0.09350000  0.65650000  0.58452385  1
  N  N1318  1  0.03150000  0.96850000  0.57675083  1
  N  N1319  1  0.09350000  0.84350000  0.58844145  1
  N  N1320  1  0.21850000  0.53150000  0.59229687  1
  N  N1321  1  0.40650000  0.59350000  0.58452385  1
  N  N1322  1  0.21850000  0.96850000  0.58066843  1
  N  N1323  1  0.40650000  0.90650000  0.58844145  1
  N  N1324  1  0.15650000  0.65650000  0.57289541  1
  N  N1325  1  0.28150000  0.71850000  0.59229687  1
  N  N1326  1  0.34350000  0.59350000  0.57289541  1
  N  N1327  1  0.34350000  0.90650000  0.56897781  1
  N  N1328  1  0.28150000  0.78150000  0.58066843  1
  N  N1329  1  0.46850000  0.78150000  0.57675083  1
  N  N1330  1  0.15650000  0.84350000  0.56897781  1
  N  N1331  1  0.46850000  0.71850000  0.56512239  1
  Zr  Zr1332  1  0.12500000  0.68750000  0.56316358  1
  Zr  Zr1333  1  0.00000000  0.62500000  0.57482312  1
  Zr  Zr1334  1  0.12500000  0.81250000  0.57870963  1
  Zr  Zr1335  1  0.00000000  0.87500000  0.56705010  1
  Zr  Zr1336  1  0.25000000  0.62500000  0.58259614  1
  Zr  Zr1337  1  0.37500000  0.93750000  0.57870963  1
  Zr  Zr1338  1  0.25000000  0.87500000  0.59036916  1
  Zr  Zr1339  1  0.37500000  0.56250000  0.56316358  1
  Zr  Zr1340  1  0.18750000  0.50000000  0.57093661  1
  Zr  Zr1341  1  0.06250000  0.50000000  0.58648265  1
  Zr  Zr1342  1  0.31250000  0.75000000  0.57093661  1
  Zr  Zr1343  1  0.43750000  0.75000000  0.58648265  1
  N  N1344  1  0.03150000  0.53150000  0.59621448  1
  N  N1345  1  0.09350000  0.65650000  0.61561594  1
  N  N1346  1  0.03150000  0.96850000  0.60784292  1
  N  N1347  1  0.09350000  0.84350000  0.61953355  1
  N  N1348  1  0.21850000  0.53150000  0.62338897  1
  N  N1349  1  0.40650000  0.59350000  0.61561594  1
  N  N1350  1  0.21850000  0.96850000  0.61176052  1
  N  N1351  1  0.40650000  0.90650000  0.61953355  1
  N  N1352  1  0.15650000  0.65650000  0.60398750  1
  N  N1353  1  0.28150000  0.71850000  0.62338897  1
  N  N1354  1  0.34350000  0.59350000  0.60398750  1
  N  N1355  1  0.34350000  0.90650000  0.60006990  1
  N  N1356  1  0.28150000  0.78150000  0.61176052  1
  N  N1357  1  0.46850000  0.78150000  0.60784292  1
  N  N1358  1  0.15650000  0.84350000  0.60006990  1
  N  N1359  1  0.46850000  0.71850000  0.59621448  1
  Zr  Zr1360  1  0.12500000  0.68750000  0.59425568  1
  Zr  Zr1361  1  0.00000000  0.62500000  0.60591521  1
  Zr  Zr1362  1  0.12500000  0.81250000  0.60980172  1
  Zr  Zr1363  1  0.00000000  0.87500000  0.59814219  1
  Zr  Zr1364  1  0.25000000  0.62500000  0.61368823  1
  Zr  Zr1365  1  0.37500000  0.93750000  0.60980172  1
  Zr  Zr1366  1  0.25000000  0.87500000  0.62146126  1
  Zr  Zr1367  1  0.37500000  0.56250000  0.59425568  1
  Zr  Zr1368  1  0.18750000  0.50000000  0.60202870  1
  Zr  Zr1369  1  0.06250000  0.50000000  0.61757474  1
  Zr  Zr1370  1  0.31250000  0.75000000  0.60202870  1
  Zr  Zr1371  1  0.43750000  0.75000000  0.61757474  1
  N  N1372  1  0.03150000  0.53150000  0.62730657  1
  N  N1373  1  0.09350000  0.65650000  0.64670803  1
  N  N1374  1  0.03150000  0.96850000  0.63893501  1
  N  N1375  1  0.09350000  0.84350000  0.65062564  1
  N  N1376  1  0.21850000  0.53150000  0.65448106  1
  N  N1377  1  0.40650000  0.59350000  0.64670803  1
  N  N1378  1  0.21850000  0.96850000  0.64285262  1
  N  N1379  1  0.40650000  0.90650000  0.65062564  1
  N  N1380  1  0.15650000  0.65650000  0.63507959  1
  N  N1381  1  0.28150000  0.71850000  0.65448106  1
  N  N1382  1  0.34350000  0.59350000  0.63507959  1
  N  N1383  1  0.34350000  0.90650000  0.63116199  1
  N  N1384  1  0.28150000  0.78150000  0.64285262  1
  N  N1385  1  0.46850000  0.78150000  0.63893501  1
  N  N1386  1  0.15650000  0.84350000  0.63116199  1
  N  N1387  1  0.46850000  0.71850000  0.62730657  1
  Zr  Zr1388  1  0.12500000  0.68750000  0.62534777  1
  Zr  Zr1389  1  0.00000000  0.62500000  0.63700730  1
  Zr  Zr1390  1  0.12500000  0.81250000  0.64089381  1
  Zr  Zr1391  1  0.00000000  0.87500000  0.62923428  1
  Zr  Zr1392  1  0.25000000  0.62500000  0.64478033  1
  Zr  Zr1393  1  0.37500000  0.93750000  0.64089381  1
  Zr  Zr1394  1  0.25000000  0.87500000  0.65255335  1
  Zr  Zr1395  1  0.37500000  0.56250000  0.62534777  1
  Zr  Zr1396  1  0.18750000  0.50000000  0.63312079  1
  Zr  Zr1397  1  0.06250000  0.50000000  0.64866684  1
  Zr  Zr1398  1  0.31250000  0.75000000  0.63312079  1
  Zr  Zr1399  1  0.43750000  0.75000000  0.64866684  1
  N  N1400  1  0.03150000  0.53150000  0.65839866  1
  N  N1401  1  0.09350000  0.65650000  0.67780013  1
  N  N1402  1  0.03150000  0.96850000  0.67002710  1
  N  N1403  1  0.09350000  0.84350000  0.68171773  1
  N  N1404  1  0.21850000  0.53150000  0.68557315  1
  N  N1405  1  0.40650000  0.59350000  0.67780013  1
  N  N1406  1  0.21850000  0.96850000  0.67394471  1
  N  N1407  1  0.40650000  0.90650000  0.68171773  1
  N  N1408  1  0.15650000  0.65650000  0.66617168  1
  N  N1409  1  0.28150000  0.71850000  0.68557315  1
  N  N1410  1  0.34350000  0.59350000  0.66617168  1
  N  N1411  1  0.34350000  0.90650000  0.66225408  1
  N  N1412  1  0.28150000  0.78150000  0.67394471  1
  N  N1413  1  0.46850000  0.78150000  0.67002710  1
  N  N1414  1  0.15650000  0.84350000  0.66225408  1
  N  N1415  1  0.46850000  0.71850000  0.65839866  1
  Zr  Zr1416  1  0.12500000  0.68750000  0.65643986  1
  Zr  Zr1417  1  0.00000000  0.62500000  0.66809939  1
  Zr  Zr1418  1  0.12500000  0.81250000  0.67198591  1
  Zr  Zr1419  1  0.00000000  0.87500000  0.66032637  1
  Zr  Zr1420  1  0.25000000  0.62500000  0.67587242  1
  Zr  Zr1421  1  0.37500000  0.93750000  0.67198591  1
  Zr  Zr1422  1  0.25000000  0.87500000  0.68364544  1
  Zr  Zr1423  1  0.37500000  0.56250000  0.65643986  1
  Zr  Zr1424  1  0.18750000  0.50000000  0.66421288  1
  Zr  Zr1425  1  0.06250000  0.50000000  0.67975893  1
  Zr  Zr1426  1  0.31250000  0.75000000  0.66421288  1
  Zr  Zr1427  1  0.43750000  0.75000000  0.67975893  1
  N  N1428  1  0.03150000  0.53150000  0.68949075  1
  N  N1429  1  0.09350000  0.65650000  0.70889222  1
  N  N1430  1  0.03150000  0.96850000  0.70111920  1
  N  N1431  1  0.09350000  0.84350000  0.71280982  1
  N  N1432  1  0.21850000  0.53150000  0.71666524  1
  N  N1433  1  0.40650000  0.59350000  0.70889222  1
  N  N1434  1  0.21850000  0.96850000  0.70503680  1
  N  N1435  1  0.40650000  0.90650000  0.71280982  1
  N  N1436  1  0.15650000  0.65650000  0.69726378  1
  N  N1437  1  0.28150000  0.71850000  0.71666524  1
  N  N1438  1  0.34350000  0.59350000  0.69726378  1
  N  N1439  1  0.34350000  0.90650000  0.69334617  1
  N  N1440  1  0.28150000  0.78150000  0.70503680  1
  N  N1441  1  0.46850000  0.78150000  0.70111920  1
  N  N1442  1  0.15650000  0.84350000  0.69334617  1
  N  N1443  1  0.46850000  0.71850000  0.68949075  1
  Zr  Zr1444  1  0.12500000  0.68750000  0.68753195  1
  Zr  Zr1445  1  0.00000000  0.62500000  0.69919149  1
  Zr  Zr1446  1  0.12500000  0.81250000  0.70307800  1
  Zr  Zr1447  1  0.00000000  0.87500000  0.69141846  1
  Zr  Zr1448  1  0.25000000  0.62500000  0.70696451  1
  Zr  Zr1449  1  0.37500000  0.93750000  0.70307800  1
  Zr  Zr1450  1  0.25000000  0.87500000  0.71473753  1
  Zr  Zr1451  1  0.37500000  0.56250000  0.68753195  1
  Zr  Zr1452  1  0.18750000  0.50000000  0.69530497  1
  Zr  Zr1453  1  0.06250000  0.50000000  0.71085102  1
  Zr  Zr1454  1  0.31250000  0.75000000  0.69530497  1
  Zr  Zr1455  1  0.43750000  0.75000000  0.71085102  1
  N  N1456  1  0.03150000  0.53150000  0.72058284  1
  N  N1457  1  0.09350000  0.65650000  0.73998431  1
  N  N1458  1  0.03150000  0.96850000  0.73221129  1
  N  N1459  1  0.09350000  0.84350000  0.74390191  1
  N  N1460  1  0.21850000  0.53150000  0.74775733  1
  N  N1461  1  0.40650000  0.59350000  0.73998431  1
  N  N1462  1  0.21850000  0.96850000  0.73612889  1
  N  N1463  1  0.40650000  0.90650000  0.74390191  1
  N  N1464  1  0.15650000  0.65650000  0.72835587  1
  N  N1465  1  0.28150000  0.71850000  0.74775733  1
  N  N1466  1  0.34350000  0.59350000  0.72835587  1
  N  N1467  1  0.34350000  0.90650000  0.72443826  1
  N  N1468  1  0.28150000  0.78150000  0.73612889  1
  N  N1469  1  0.46850000  0.78150000  0.73221129  1
  N  N1470  1  0.15650000  0.84350000  0.72443826  1
  N  N1471  1  0.46850000  0.71850000  0.72058284  1
  Zr  Zr1472  1  0.12500000  0.68750000  0.71862404  1
  Zr  Zr1473  1  0.00000000  0.62500000  0.73028358  1
  Zr  Zr1474  1  0.12500000  0.81250000  0.73417009  1
  Zr  Zr1475  1  0.00000000  0.87500000  0.72251055  1
  Zr  Zr1476  1  0.25000000  0.62500000  0.73805660  1
  Zr  Zr1477  1  0.37500000  0.93750000  0.73417009  1
  Zr  Zr1478  1  0.25000000  0.87500000  0.74582962  1
  Zr  Zr1479  1  0.37500000  0.56250000  0.71862404  1
  Zr  Zr1480  1  0.18750000  0.50000000  0.72639707  1
  Zr  Zr1481  1  0.06250000  0.50000000  0.74194311  1
  Zr  Zr1482  1  0.31250000  0.75000000  0.72639707  1
  Zr  Zr1483  1  0.43750000  0.75000000  0.74194311  1
  N  N1484  1  0.03150000  0.53150000  0.75167494  1
  N  N1485  1  0.09350000  0.65650000  0.77107640  1
  N  N1486  1  0.03150000  0.96850000  0.76330338  1
  N  N1487  1  0.09350000  0.84350000  0.77499401  1
  N  N1488  1  0.21850000  0.53150000  0.77884942  1
  N  N1489  1  0.40650000  0.59350000  0.77107640  1
  N  N1490  1  0.21850000  0.96850000  0.76722098  1
  N  N1491  1  0.40650000  0.90650000  0.77499401  1
  N  N1492  1  0.15650000  0.65650000  0.75944796  1
  N  N1493  1  0.28150000  0.71850000  0.77884942  1
  N  N1494  1  0.34350000  0.59350000  0.75944796  1
  N  N1495  1  0.34350000  0.90650000  0.75553036  1
  N  N1496  1  0.28150000  0.78150000  0.76722098  1
  N  N1497  1  0.46850000  0.78150000  0.76330338  1
  N  N1498  1  0.15650000  0.84350000  0.75553036  1
  N  N1499  1  0.46850000  0.71850000  0.75167494  1
  Zr  Zr1500  1  0.12500000  0.68750000  0.74971613  1
  Zr  Zr1501  1  0.00000000  0.62500000  0.76137567  1
  Zr  Zr1502  1  0.12500000  0.81250000  0.76526218  1
  Zr  Zr1503  1  0.00000000  0.87500000  0.75360265  1
  Zr  Zr1504  1  0.25000000  0.62500000  0.76914869  1
  Zr  Zr1505  1  0.37500000  0.93750000  0.76526218  1
  Zr  Zr1506  1  0.25000000  0.87500000  0.77692172  1
  Zr  Zr1507  1  0.37500000  0.56250000  0.74971613  1
  Zr  Zr1508  1  0.18750000  0.50000000  0.75748916  1
  Zr  Zr1509  1  0.06250000  0.50000000  0.77303520  1
  Zr  Zr1510  1  0.31250000  0.75000000  0.75748916  1
  Zr  Zr1511  1  0.43750000  0.75000000  0.77303520  1
  N  N1512  1  0.03150000  0.53150000  0.78276703  1
  N  N1513  1  0.09350000  0.65650000  0.80216849  1
  N  N1514  1  0.03150000  0.96850000  0.79439547  1
  N  N1515  1  0.09350000  0.84350000  0.80608610  1
  N  N1516  1  0.21850000  0.53150000  0.80994152  1
  N  N1517  1  0.40650000  0.59350000  0.80216849  1
  N  N1518  1  0.21850000  0.96850000  0.79831307  1
  N  N1519  1  0.40650000  0.90650000  0.80608610  1
  N  N1520  1  0.15650000  0.65650000  0.79054005  1
  N  N1521  1  0.28150000  0.71850000  0.80994152  1
  N  N1522  1  0.34350000  0.59350000  0.79054005  1
  N  N1523  1  0.34350000  0.90650000  0.78662245  1
  N  N1524  1  0.28150000  0.78150000  0.79831307  1
  N  N1525  1  0.46850000  0.78150000  0.79439547  1
  N  N1526  1  0.15650000  0.84350000  0.78662245  1
  N  N1527  1  0.46850000  0.71850000  0.78276703  1
  Zr  Zr1528  1  0.12500000  0.68750000  0.78080823  1
  Zr  Zr1529  1  0.00000000  0.62500000  0.79246776  1
  Zr  Zr1530  1  0.12500000  0.81250000  0.79635427  1
  Zr  Zr1531  1  0.00000000  0.87500000  0.78469474  1
  Zr  Zr1532  1  0.25000000  0.62500000  0.80024078  1
  Zr  Zr1533  1  0.37500000  0.93750000  0.79635427  1
  Zr  Zr1534  1  0.25000000  0.87500000  0.80801381  1
  Zr  Zr1535  1  0.37500000  0.56250000  0.78080823  1
  Zr  Zr1536  1  0.18750000  0.50000000  0.78858125  1
  Zr  Zr1537  1  0.06250000  0.50000000  0.80412730  1
  Zr  Zr1538  1  0.31250000  0.75000000  0.78858125  1
  Zr  Zr1539  1  0.43750000  0.75000000  0.80412730  1
  N  N1540  1  0.03150000  0.53150000  0.81385912  1
  N  N1541  1  0.09350000  0.65650000  0.83326059  1
  N  N1542  1  0.03150000  0.96850000  0.82548756  1
  N  N1543  1  0.09350000  0.84350000  0.83717819  1
  N  N1544  1  0.21850000  0.53150000  0.84103361  1
  N  N1545  1  0.40650000  0.59350000  0.83326059  1
  N  N1546  1  0.21850000  0.96850000  0.82940517  1
  N  N1547  1  0.40650000  0.90650000  0.83717819  1
  N  N1548  1  0.15650000  0.65650000  0.82163214  1
  N  N1549  1  0.28150000  0.71850000  0.84103361  1
  N  N1550  1  0.34350000  0.59350000  0.82163214  1
  N  N1551  1  0.34350000  0.90650000  0.81771454  1
  N  N1552  1  0.28150000  0.78150000  0.82940517  1
  N  N1553  1  0.46850000  0.78150000  0.82548756  1
  N  N1554  1  0.15650000  0.84350000  0.81771454  1
  N  N1555  1  0.46850000  0.71850000  0.81385912  1
  Zr  Zr1556  1  0.12500000  0.68750000  0.81190032  1
  Zr  Zr1557  1  0.00000000  0.62500000  0.82355985  1
  Zr  Zr1558  1  0.12500000  0.81250000  0.82744636  1
  Zr  Zr1559  1  0.00000000  0.87500000  0.81578683  1
  Zr  Zr1560  1  0.25000000  0.62500000  0.83133288  1
  Zr  Zr1561  1  0.37500000  0.93750000  0.82744636  1
  Zr  Zr1562  1  0.25000000  0.87500000  0.83910590  1
  Zr  Zr1563  1  0.37500000  0.56250000  0.81190032  1
  Zr  Zr1564  1  0.18750000  0.50000000  0.81967334  1
  Zr  Zr1565  1  0.06250000  0.50000000  0.83521939  1
  Zr  Zr1566  1  0.31250000  0.75000000  0.81967334  1
  Zr  Zr1567  1  0.43750000  0.75000000  0.83521939  1
  N  N1568  1  0.03150000  0.53150000  0.84495121  1
  N  N1569  1  0.09350000  0.65650000  0.86435268  1
  N  N1570  1  0.03150000  0.96850000  0.85657965  1
  N  N1571  1  0.09350000  0.84350000  0.86827028  1
  N  N1572  1  0.21850000  0.53150000  0.87212570  1
  N  N1573  1  0.40650000  0.59350000  0.86435268  1
  N  N1574  1  0.21850000  0.96850000  0.86049726  1
  N  N1575  1  0.40650000  0.90650000  0.86827028  1
  N  N1576  1  0.15650000  0.65650000  0.85272423  1
  N  N1577  1  0.28150000  0.71850000  0.87212570  1
  N  N1578  1  0.34350000  0.59350000  0.85272423  1
  N  N1579  1  0.34350000  0.90650000  0.84880663  1
  N  N1580  1  0.28150000  0.78150000  0.86049726  1
  N  N1581  1  0.46850000  0.78150000  0.85657965  1
  N  N1582  1  0.15650000  0.84350000  0.84880663  1
  N  N1583  1  0.46850000  0.71850000  0.84495121  1
  Zr  Zr1584  1  0.12500000  0.68750000  0.84299241  1
  Zr  Zr1585  1  0.00000000  0.62500000  0.85465194  1
  Zr  Zr1586  1  0.12500000  0.81250000  0.85853846  1
  Zr  Zr1587  1  0.00000000  0.87500000  0.84687892  1
  Zr  Zr1588  1  0.25000000  0.62500000  0.86242497  1
  Zr  Zr1589  1  0.37500000  0.93750000  0.85853846  1
  Zr  Zr1590  1  0.25000000  0.87500000  0.87019799  1
  Zr  Zr1591  1  0.37500000  0.56250000  0.84299241  1
  Zr  Zr1592  1  0.18750000  0.50000000  0.85076543  1
  Zr  Zr1593  1  0.06250000  0.50000000  0.86631148  1
  Zr  Zr1594  1  0.31250000  0.75000000  0.85076543  1
  Zr  Zr1595  1  0.43750000  0.75000000  0.86631148  1
  N  N1596  1  0.03150000  0.53150000  0.87604330  1
  N  N1597  1  0.09350000  0.65650000  0.89544477  1
  N  N1598  1  0.03150000  0.96850000  0.88767175  1
  N  N1599  1  0.09350000  0.84350000  0.89936237  1
  N  N1600  1  0.21850000  0.53150000  0.90321779  1
  N  N1601  1  0.40650000  0.59350000  0.89544477  1
  N  N1602  1  0.21850000  0.96850000  0.89158935  1
  N  N1603  1  0.40650000  0.90650000  0.89936237  1
  N  N1604  1  0.15650000  0.65650000  0.88381633  1
  N  N1605  1  0.28150000  0.71850000  0.90321779  1
  N  N1606  1  0.34350000  0.59350000  0.88381633  1
  N  N1607  1  0.34350000  0.90650000  0.87989872  1
  N  N1608  1  0.28150000  0.78150000  0.89158935  1
  N  N1609  1  0.46850000  0.78150000  0.88767175  1
  N  N1610  1  0.15650000  0.84350000  0.87989872  1
  N  N1611  1  0.46850000  0.71850000  0.87604330  1
  Zr  Zr1612  1  0.12500000  0.68750000  0.87408450  1
  Zr  Zr1613  1  0.00000000  0.62500000  0.88574404  1
  Zr  Zr1614  1  0.12500000  0.81250000  0.88963055  1
  Zr  Zr1615  1  0.00000000  0.87500000  0.87797101  1
  Zr  Zr1616  1  0.25000000  0.62500000  0.89351706  1
  Zr  Zr1617  1  0.37500000  0.93750000  0.88963055  1
  Zr  Zr1618  1  0.25000000  0.87500000  0.90129008  1
  Zr  Zr1619  1  0.37500000  0.56250000  0.87408450  1
  Zr  Zr1620  1  0.18750000  0.50000000  0.88185752  1
  Zr  Zr1621  1  0.06250000  0.50000000  0.89740357  1
  Zr  Zr1622  1  0.31250000  0.75000000  0.88185752  1
  Zr  Zr1623  1  0.43750000  0.75000000  0.89740357  1
  N  N1624  1  0.03150000  0.53150000  0.90713540  1
  N  N1625  1  0.09350000  0.65650000  0.92653686  1
  N  N1626  1  0.03150000  0.96850000  0.91876384  1
  N  N1627  1  0.09350000  0.84350000  0.93045446  1
  N  N1628  1  0.21850000  0.53150000  0.93430988  1
  N  N1629  1  0.40650000  0.59350000  0.92653686  1
  N  N1630  1  0.21850000  0.96850000  0.92268144  1
  N  N1631  1  0.40650000  0.90650000  0.93045446  1
  N  N1632  1  0.15650000  0.65650000  0.91490842  1
  N  N1633  1  0.28150000  0.71850000  0.93430988  1
  N  N1634  1  0.34350000  0.59350000  0.91490842  1
  N  N1635  1  0.34350000  0.90650000  0.91099081  1
  N  N1636  1  0.28150000  0.78150000  0.92268144  1
  N  N1637  1  0.46850000  0.78150000  0.91876384  1
  N  N1638  1  0.15650000  0.84350000  0.91099081  1
  N  N1639  1  0.46850000  0.71850000  0.90713540  1
  Zr  Zr1640  1  0.12500000  0.68750000  0.90517659  1
  Zr  Zr1641  1  0.00000000  0.62500000  0.91683613  1
  Zr  Zr1642  1  0.12500000  0.81250000  0.92072264  1
  Zr  Zr1643  1  0.00000000  0.87500000  0.90906310  1
  Zr  Zr1644  1  0.25000000  0.62500000  0.92460915  1
  Zr  Zr1645  1  0.37500000  0.93750000  0.92072264  1
  Zr  Zr1646  1  0.25000000  0.87500000  0.93238217  1
  Zr  Zr1647  1  0.37500000  0.56250000  0.90517659  1
  Zr  Zr1648  1  0.18750000  0.50000000  0.91294962  1
  Zr  Zr1649  1  0.06250000  0.50000000  0.92849566  1
  Zr  Zr1650  1  0.31250000  0.75000000  0.91294962  1
  Zr  Zr1651  1  0.43750000  0.75000000  0.92849566  1
  N  N1652  1  0.03150000  0.53150000  0.93822749  1
  N  N1653  1  0.09350000  0.65650000  0.95762895  1
  N  N1654  1  0.03150000  0.96850000  0.94985593  1
  N  N1655  1  0.09350000  0.84350000  0.96154656  1
  N  N1656  1  0.21850000  0.53150000  0.96540198  1
  N  N1657  1  0.40650000  0.59350000  0.95762895  1
  N  N1658  1  0.21850000  0.96850000  0.95377353  1
  N  N1659  1  0.40650000  0.90650000  0.96154656  1
  N  N1660  1  0.15650000  0.65650000  0.94600051  1
  N  N1661  1  0.28150000  0.71850000  0.96540198  1
  N  N1662  1  0.34350000  0.59350000  0.94600051  1
  N  N1663  1  0.34350000  0.90650000  0.94208291  1
  N  N1664  1  0.28150000  0.78150000  0.95377353  1
  N  N1665  1  0.46850000  0.78150000  0.94985593  1
  N  N1666  1  0.15650000  0.84350000  0.94208291  1
  N  N1667  1  0.46850000  0.71850000  0.93822749  1
  Zr  Zr1668  1  0.12500000  0.68750000  0.93626869  1
  Zr  Zr1669  1  0.00000000  0.62500000  0.94792822  1
  Zr  Zr1670  1  0.12500000  0.81250000  0.95181473  1
  Zr  Zr1671  1  0.00000000  0.87500000  0.94015520  1
  Zr  Zr1672  1  0.25000000  0.62500000  0.95570124  1
  Zr  Zr1673  1  0.37500000  0.93750000  0.95181473  1
  Zr  Zr1674  1  0.25000000  0.87500000  0.96347427  1
  Zr  Zr1675  1  0.37500000  0.56250000  0.93626869  1
  Zr  Zr1676  1  0.18750000  0.50000000  0.94404171  1
  Zr  Zr1677  1  0.06250000  0.50000000  0.95958775  1
  Zr  Zr1678  1  0.31250000  0.75000000  0.94404171  1
  Zr  Zr1679  1  0.43750000  0.75000000  0.95958775  1
  N  N1680  1  0.53150000  0.03150000  0.03655683  1
  N  N1681  1  0.59350000  0.15650000  0.05595829  1
  N  N1682  1  0.53150000  0.46850000  0.04818527  1
  N  N1683  1  0.59350000  0.34350000  0.05987590  1
  N  N1684  1  0.71850000  0.03150000  0.06373131  1
  N  N1685  1  0.90650000  0.09350000  0.05595829  1
  N  N1686  1  0.71850000  0.46850000  0.05210287  1
  N  N1687  1  0.90650000  0.40650000  0.05987590  1
  N  N1688  1  0.65650000  0.15650000  0.04432985  1
  N  N1689  1  0.78150000  0.21850000  0.06373131  1
  N  N1690  1  0.84350000  0.09350000  0.04432985  1
  N  N1691  1  0.84350000  0.40650000  0.04041225  1
  N  N1692  1  0.78150000  0.28150000  0.05210287  1
  N  N1693  1  0.96850000  0.28150000  0.04818527  1
  N  N1694  1  0.65650000  0.34350000  0.04041225  1
  N  N1695  1  0.96850000  0.21850000  0.03655683  1
  Zr  Zr1696  1  0.62500000  0.18750000  0.03459802  1
  Zr  Zr1697  1  0.50000000  0.12500000  0.04625756  1
  Zr  Zr1698  1  0.62500000  0.31250000  0.05014407  1
  Zr  Zr1699  1  0.50000000  0.37500000  0.03848454  1
  Zr  Zr1700  1  0.75000000  0.12500000  0.05403058  1
  Zr  Zr1701  1  0.87500000  0.43750000  0.05014407  1
  Zr  Zr1702  1  0.75000000  0.37500000  0.06180361  1
  Zr  Zr1703  1  0.87500000  0.06250000  0.03459802  1
  Zr  Zr1704  1  0.68750000  0.00000000  0.04237105  1
  Zr  Zr1705  1  0.56250000  0.00000000  0.05791709  1
  Zr  Zr1706  1  0.81250000  0.25000000  0.04237105  1
  Zr  Zr1707  1  0.93750000  0.25000000  0.05791709  1
  N  N1708  1  0.53150000  0.03150000  0.06764892  1
  N  N1709  1  0.59350000  0.15650000  0.08705038  1
  N  N1710  1  0.53150000  0.46850000  0.07927736  1
  N  N1711  1  0.59350000  0.34350000  0.09096799  1
  N  N1712  1  0.71850000  0.03150000  0.09482341  1
  N  N1713  1  0.90650000  0.09350000  0.08705038  1
  N  N1714  1  0.71850000  0.46850000  0.08319496  1
  N  N1715  1  0.90650000  0.40650000  0.09096799  1
  N  N1716  1  0.65650000  0.15650000  0.07542194  1
  N  N1717  1  0.78150000  0.21850000  0.09482341  1
  N  N1718  1  0.84350000  0.09350000  0.07542194  1
  N  N1719  1  0.84350000  0.40650000  0.07150434  1
  N  N1720  1  0.78150000  0.28150000  0.08319496  1
  N  N1721  1  0.96850000  0.28150000  0.07927736  1
  N  N1722  1  0.65650000  0.34350000  0.07150434  1
  N  N1723  1  0.96850000  0.21850000  0.06764892  1
  Zr  Zr1724  1  0.62500000  0.18750000  0.06569012  1
  Zr  Zr1725  1  0.50000000  0.12500000  0.07734965  1
  Zr  Zr1726  1  0.62500000  0.31250000  0.08123616  1
  Zr  Zr1727  1  0.50000000  0.37500000  0.06957663  1
  Zr  Zr1728  1  0.75000000  0.12500000  0.08512267  1
  Zr  Zr1729  1  0.87500000  0.43750000  0.08123616  1
  Zr  Zr1730  1  0.75000000  0.37500000  0.09289570  1
  Zr  Zr1731  1  0.87500000  0.06250000  0.06569012  1
  Zr  Zr1732  1  0.68750000  0.00000000  0.07346314  1
  Zr  Zr1733  1  0.56250000  0.00000000  0.08900919  1
  Zr  Zr1734  1  0.81250000  0.25000000  0.07346314  1
  Zr  Zr1735  1  0.93750000  0.25000000  0.08900919  1
  N  N1736  1  0.53150000  0.03150000  0.09874101  1
  N  N1737  1  0.59350000  0.15650000  0.11814248  1
  N  N1738  1  0.53150000  0.46850000  0.11036945  1
  N  N1739  1  0.59350000  0.34350000  0.12206008  1
  N  N1740  1  0.71850000  0.03150000  0.12591550  1
  N  N1741  1  0.90650000  0.09350000  0.11814248  1
  N  N1742  1  0.71850000  0.46850000  0.11428706  1
  N  N1743  1  0.90650000  0.40650000  0.12206008  1
  N  N1744  1  0.65650000  0.15650000  0.10651403  1
  N  N1745  1  0.78150000  0.21850000  0.12591550  1
  N  N1746  1  0.84350000  0.09350000  0.10651403  1
  N  N1747  1  0.84350000  0.40650000  0.10259643  1
  N  N1748  1  0.78150000  0.28150000  0.11428706  1
  N  N1749  1  0.96850000  0.28150000  0.11036945  1
  N  N1750  1  0.65650000  0.34350000  0.10259643  1
  N  N1751  1  0.96850000  0.21850000  0.09874101  1
  Zr  Zr1752  1  0.62500000  0.18750000  0.09678221  1
  Zr  Zr1753  1  0.50000000  0.12500000  0.10844174  1
  Zr  Zr1754  1  0.62500000  0.31250000  0.11232825  1
  Zr  Zr1755  1  0.50000000  0.37500000  0.10066872  1
  Zr  Zr1756  1  0.75000000  0.12500000  0.11621477  1
  Zr  Zr1757  1  0.87500000  0.43750000  0.11232825  1
  Zr  Zr1758  1  0.75000000  0.37500000  0.12398779  1
  Zr  Zr1759  1  0.87500000  0.06250000  0.09678221  1
  Zr  Zr1760  1  0.68750000  0.00000000  0.10455523  1
  Zr  Zr1761  1  0.56250000  0.00000000  0.12010128  1
  Zr  Zr1762  1  0.81250000  0.25000000  0.10455523  1
  Zr  Zr1763  1  0.93750000  0.25000000  0.12010128  1
  N  N1764  1  0.53150000  0.03150000  0.12983310  1
  N  N1765  1  0.59350000  0.15650000  0.14923457  1
  N  N1766  1  0.53150000  0.46850000  0.14146154  1
  N  N1767  1  0.59350000  0.34350000  0.15315217  1
  N  N1768  1  0.71850000  0.03150000  0.15700759  1
  N  N1769  1  0.90650000  0.09350000  0.14923457  1
  N  N1770  1  0.71850000  0.46850000  0.14537915  1
  N  N1771  1  0.90650000  0.40650000  0.15315217  1
  N  N1772  1  0.65650000  0.15650000  0.13760612  1
  N  N1773  1  0.78150000  0.21850000  0.15700759  1
  N  N1774  1  0.84350000  0.09350000  0.13760612  1
  N  N1775  1  0.84350000  0.40650000  0.13368852  1
  N  N1776  1  0.78150000  0.28150000  0.14537915  1
  N  N1777  1  0.96850000  0.28150000  0.14146154  1
  N  N1778  1  0.65650000  0.34350000  0.13368852  1
  N  N1779  1  0.96850000  0.21850000  0.12983310  1
  Zr  Zr1780  1  0.62500000  0.18750000  0.12787430  1
  Zr  Zr1781  1  0.50000000  0.12500000  0.13953383  1
  Zr  Zr1782  1  0.62500000  0.31250000  0.14342035  1
  Zr  Zr1783  1  0.50000000  0.37500000  0.13176081  1
  Zr  Zr1784  1  0.75000000  0.12500000  0.14730686  1
  Zr  Zr1785  1  0.87500000  0.43750000  0.14342035  1
  Zr  Zr1786  1  0.75000000  0.37500000  0.15507988  1
  Zr  Zr1787  1  0.87500000  0.06250000  0.12787430  1
  Zr  Zr1788  1  0.68750000  0.00000000  0.13564732  1
  Zr  Zr1789  1  0.56250000  0.00000000  0.15119337  1
  Zr  Zr1790  1  0.81250000  0.25000000  0.13564732  1
  Zr  Zr1791  1  0.93750000  0.25000000  0.15119337  1
  N  N1792  1  0.53150000  0.03150000  0.16092519  1
  N  N1793  1  0.59350000  0.15650000  0.18032666  1
  N  N1794  1  0.53150000  0.46850000  0.17255364  1
  N  N1795  1  0.59350000  0.34350000  0.18424426  1
  N  N1796  1  0.71850000  0.03150000  0.18809968  1
  N  N1797  1  0.90650000  0.09350000  0.18032666  1
  N  N1798  1  0.71850000  0.46850000  0.17647124  1
  N  N1799  1  0.90650000  0.40650000  0.18424426  1
  N  N1800  1  0.65650000  0.15650000  0.16869822  1
  N  N1801  1  0.78150000  0.21850000  0.18809968  1
  N  N1802  1  0.84350000  0.09350000  0.16869822  1
  N  N1803  1  0.84350000  0.40650000  0.16478061  1
  N  N1804  1  0.78150000  0.28150000  0.17647124  1
  N  N1805  1  0.96850000  0.28150000  0.17255364  1
  N  N1806  1  0.65650000  0.34350000  0.16478061  1
  N  N1807  1  0.96850000  0.21850000  0.16092519  1
  Zr  Zr1808  1  0.62500000  0.18750000  0.15896639  1
  Zr  Zr1809  1  0.50000000  0.12500000  0.17062593  1
  Zr  Zr1810  1  0.62500000  0.31250000  0.17451244  1
  Zr  Zr1811  1  0.50000000  0.37500000  0.16285290  1
  Zr  Zr1812  1  0.75000000  0.12500000  0.17839895  1
  Zr  Zr1813  1  0.87500000  0.43750000  0.17451244  1
  Zr  Zr1814  1  0.75000000  0.37500000  0.18617197  1
  Zr  Zr1815  1  0.87500000  0.06250000  0.15896639  1
  Zr  Zr1816  1  0.68750000  0.00000000  0.16673941  1
  Zr  Zr1817  1  0.56250000  0.00000000  0.18228546  1
  Zr  Zr1818  1  0.81250000  0.25000000  0.16673941  1
  Zr  Zr1819  1  0.93750000  0.25000000  0.18228546  1
  N  N1820  1  0.53150000  0.03150000  0.19201729  1
  N  N1821  1  0.59350000  0.15650000  0.21141875  1
  N  N1822  1  0.53150000  0.46850000  0.20364573  1
  N  N1823  1  0.59350000  0.34350000  0.21533635  1
  N  N1824  1  0.71850000  0.03150000  0.21919177  1
  N  N1825  1  0.90650000  0.09350000  0.21141875  1
  N  N1826  1  0.71850000  0.46850000  0.20756333  1
  N  N1827  1  0.90650000  0.40650000  0.21533635  1
  N  N1828  1  0.65650000  0.15650000  0.19979031  1
  N  N1829  1  0.78150000  0.21850000  0.21919177  1
  N  N1830  1  0.84350000  0.09350000  0.19979031  1
  N  N1831  1  0.84350000  0.40650000  0.19587270  1
  N  N1832  1  0.78150000  0.28150000  0.20756333  1
  N  N1833  1  0.96850000  0.28150000  0.20364573  1
  N  N1834  1  0.65650000  0.34350000  0.19587270  1
  N  N1835  1  0.96850000  0.21850000  0.19201729  1
  Zr  Zr1836  1  0.62500000  0.18750000  0.19005848  1
  Zr  Zr1837  1  0.50000000  0.12500000  0.20171802  1
  Zr  Zr1838  1  0.62500000  0.31250000  0.20560453  1
  Zr  Zr1839  1  0.50000000  0.37500000  0.19394500  1
  Zr  Zr1840  1  0.75000000  0.12500000  0.20949104  1
  Zr  Zr1841  1  0.87500000  0.43750000  0.20560453  1
  Zr  Zr1842  1  0.75000000  0.37500000  0.21726406  1
  Zr  Zr1843  1  0.87500000  0.06250000  0.19005848  1
  Zr  Zr1844  1  0.68750000  0.00000000  0.19783151  1
  Zr  Zr1845  1  0.56250000  0.00000000  0.21337755  1
  Zr  Zr1846  1  0.81250000  0.25000000  0.19783151  1
  Zr  Zr1847  1  0.93750000  0.25000000  0.21337755  1
  N  N1848  1  0.53150000  0.03150000  0.22310938  1
  N  N1849  1  0.59350000  0.15650000  0.24251084  1
  N  N1850  1  0.53150000  0.46850000  0.23473782  1
  N  N1851  1  0.59350000  0.34350000  0.24642845  1
  N  N1852  1  0.71850000  0.03150000  0.25028387  1
  N  N1853  1  0.90650000  0.09350000  0.24251084  1
  N  N1854  1  0.71850000  0.46850000  0.23865542  1
  N  N1855  1  0.90650000  0.40650000  0.24642845  1
  N  N1856  1  0.65650000  0.15650000  0.23088240  1
  N  N1857  1  0.78150000  0.21850000  0.25028387  1
  N  N1858  1  0.84350000  0.09350000  0.23088240  1
  N  N1859  1  0.84350000  0.40650000  0.22696480  1
  N  N1860  1  0.78150000  0.28150000  0.23865542  1
  N  N1861  1  0.96850000  0.28150000  0.23473782  1
  N  N1862  1  0.65650000  0.34350000  0.22696480  1
  N  N1863  1  0.96850000  0.21850000  0.22310938  1
  Zr  Zr1864  1  0.62500000  0.18750000  0.22115058  1
  Zr  Zr1865  1  0.50000000  0.12500000  0.23281011  1
  Zr  Zr1866  1  0.62500000  0.31250000  0.23669662  1
  Zr  Zr1867  1  0.50000000  0.37500000  0.22503709  1
  Zr  Zr1868  1  0.75000000  0.12500000  0.24058313  1
  Zr  Zr1869  1  0.87500000  0.43750000  0.23669662  1
  Zr  Zr1870  1  0.75000000  0.37500000  0.24835616  1
  Zr  Zr1871  1  0.87500000  0.06250000  0.22115058  1
  Zr  Zr1872  1  0.68750000  0.00000000  0.22892360  1
  Zr  Zr1873  1  0.56250000  0.00000000  0.24446964  1
  Zr  Zr1874  1  0.81250000  0.25000000  0.22892360  1
  Zr  Zr1875  1  0.93750000  0.25000000  0.24446964  1
  N  N1876  1  0.53150000  0.03150000  0.25420147  1
  N  N1877  1  0.59350000  0.15650000  0.27360293  1
  N  N1878  1  0.53150000  0.46850000  0.26582991  1
  N  N1879  1  0.59350000  0.34350000  0.27752054  1
  N  N1880  1  0.71850000  0.03150000  0.28137596  1
  N  N1881  1  0.90650000  0.09350000  0.27360293  1
  N  N1882  1  0.71850000  0.46850000  0.26974751  1
  N  N1883  1  0.90650000  0.40650000  0.27752054  1
  N  N1884  1  0.65650000  0.15650000  0.26197449  1
  N  N1885  1  0.78150000  0.21850000  0.28137596  1
  N  N1886  1  0.84350000  0.09350000  0.26197449  1
  N  N1887  1  0.84350000  0.40650000  0.25805689  1
  N  N1888  1  0.78150000  0.28150000  0.26974751  1
  N  N1889  1  0.96850000  0.28150000  0.26582991  1
  N  N1890  1  0.65650000  0.34350000  0.25805689  1
  N  N1891  1  0.96850000  0.21850000  0.25420147  1
  Zr  Zr1892  1  0.62500000  0.18750000  0.25224267  1
  Zr  Zr1893  1  0.50000000  0.12500000  0.26390220  1
  Zr  Zr1894  1  0.62500000  0.31250000  0.26778871  1
  Zr  Zr1895  1  0.50000000  0.37500000  0.25612918  1
  Zr  Zr1896  1  0.75000000  0.12500000  0.27167522  1
  Zr  Zr1897  1  0.87500000  0.43750000  0.26778871  1
  Zr  Zr1898  1  0.75000000  0.37500000  0.27944825  1
  Zr  Zr1899  1  0.87500000  0.06250000  0.25224267  1
  Zr  Zr1900  1  0.68750000  0.00000000  0.26001569  1
  Zr  Zr1901  1  0.56250000  0.00000000  0.27556174  1
  Zr  Zr1902  1  0.81250000  0.25000000  0.26001569  1
  Zr  Zr1903  1  0.93750000  0.25000000  0.27556174  1
  N  N1904  1  0.53150000  0.03150000  0.28529356  1
  N  N1905  1  0.59350000  0.15650000  0.30469503  1
  N  N1906  1  0.53150000  0.46850000  0.29692200  1
  N  N1907  1  0.59350000  0.34350000  0.30861263  1
  N  N1908  1  0.71850000  0.03150000  0.31246805  1
  N  N1909  1  0.90650000  0.09350000  0.30469503  1
  N  N1910  1  0.71850000  0.46850000  0.30083961  1
  N  N1911  1  0.90650000  0.40650000  0.30861263  1
  N  N1912  1  0.65650000  0.15650000  0.29306658  1
  N  N1913  1  0.78150000  0.21850000  0.31246805  1
  N  N1914  1  0.84350000  0.09350000  0.29306658  1
  N  N1915  1  0.84350000  0.40650000  0.28914898  1
  N  N1916  1  0.78150000  0.28150000  0.30083961  1
  N  N1917  1  0.96850000  0.28150000  0.29692200  1
  N  N1918  1  0.65650000  0.34350000  0.28914898  1
  N  N1919  1  0.96850000  0.21850000  0.28529356  1
  Zr  Zr1920  1  0.62500000  0.18750000  0.28333476  1
  Zr  Zr1921  1  0.50000000  0.12500000  0.29499429  1
  Zr  Zr1922  1  0.62500000  0.31250000  0.29888080  1
  Zr  Zr1923  1  0.50000000  0.37500000  0.28722127  1
  Zr  Zr1924  1  0.75000000  0.12500000  0.30276732  1
  Zr  Zr1925  1  0.87500000  0.43750000  0.29888080  1
  Zr  Zr1926  1  0.75000000  0.37500000  0.31054034  1
  Zr  Zr1927  1  0.87500000  0.06250000  0.28333476  1
  Zr  Zr1928  1  0.68750000  0.00000000  0.29110778  1
  Zr  Zr1929  1  0.56250000  0.00000000  0.30665383  1
  Zr  Zr1930  1  0.81250000  0.25000000  0.29110778  1
  Zr  Zr1931  1  0.93750000  0.25000000  0.30665383  1
  N  N1932  1  0.53150000  0.03150000  0.31638565  1
  N  N1933  1  0.59350000  0.15650000  0.33578712  1
  N  N1934  1  0.53150000  0.46850000  0.32801409  1
  N  N1935  1  0.59350000  0.34350000  0.33970472  1
  N  N1936  1  0.71850000  0.03150000  0.34356014  1
  N  N1937  1  0.90650000  0.09350000  0.33578712  1
  N  N1938  1  0.71850000  0.46850000  0.33193170  1
  N  N1939  1  0.90650000  0.40650000  0.33970472  1
  N  N1940  1  0.65650000  0.15650000  0.32415868  1
  N  N1941  1  0.78150000  0.21850000  0.34356014  1
  N  N1942  1  0.84350000  0.09350000  0.32415868  1
  N  N1943  1  0.84350000  0.40650000  0.32024107  1
  N  N1944  1  0.78150000  0.28150000  0.33193170  1
  N  N1945  1  0.96850000  0.28150000  0.32801409  1
  N  N1946  1  0.65650000  0.34350000  0.32024107  1
  N  N1947  1  0.96850000  0.21850000  0.31638565  1
  Zr  Zr1948  1  0.62500000  0.18750000  0.31442685  1
  Zr  Zr1949  1  0.50000000  0.12500000  0.32608638  1
  Zr  Zr1950  1  0.62500000  0.31250000  0.32997290  1
  Zr  Zr1951  1  0.50000000  0.37500000  0.31831336  1
  Zr  Zr1952  1  0.75000000  0.12500000  0.33385941  1
  Zr  Zr1953  1  0.87500000  0.43750000  0.32997290  1
  Zr  Zr1954  1  0.75000000  0.37500000  0.34163243  1
  Zr  Zr1955  1  0.87500000  0.06250000  0.31442685  1
  Zr  Zr1956  1  0.68750000  0.00000000  0.32219987  1
  Zr  Zr1957  1  0.56250000  0.00000000  0.33774592  1
  Zr  Zr1958  1  0.81250000  0.25000000  0.32219987  1
  Zr  Zr1959  1  0.93750000  0.25000000  0.33774592  1
  N  N1960  1  0.53150000  0.03150000  0.34747774  1
  N  N1961  1  0.59350000  0.15650000  0.36687921  1
  N  N1962  1  0.53150000  0.46850000  0.35910619  1
  N  N1963  1  0.59350000  0.34350000  0.37079681  1
  N  N1964  1  0.71850000  0.03150000  0.37465223  1
  N  N1965  1  0.90650000  0.09350000  0.36687921  1
  N  N1966  1  0.71850000  0.46850000  0.36302379  1
  N  N1967  1  0.90650000  0.40650000  0.37079681  1
  N  N1968  1  0.65650000  0.15650000  0.35525077  1
  N  N1969  1  0.78150000  0.21850000  0.37465223  1
  N  N1970  1  0.84350000  0.09350000  0.35525077  1
  N  N1971  1  0.84350000  0.40650000  0.35133316  1
  N  N1972  1  0.78150000  0.28150000  0.36302379  1
  N  N1973  1  0.96850000  0.28150000  0.35910619  1
  N  N1974  1  0.65650000  0.34350000  0.35133316  1
  N  N1975  1  0.96850000  0.21850000  0.34747774  1
  Zr  Zr1976  1  0.62500000  0.18750000  0.34551894  1
  Zr  Zr1977  1  0.50000000  0.12500000  0.35717848  1
  Zr  Zr1978  1  0.62500000  0.31250000  0.36106499  1
  Zr  Zr1979  1  0.50000000  0.37500000  0.34940545  1
  Zr  Zr1980  1  0.75000000  0.12500000  0.36495150  1
  Zr  Zr1981  1  0.87500000  0.43750000  0.36106499  1
  Zr  Zr1982  1  0.75000000  0.37500000  0.37272452  1
  Zr  Zr1983  1  0.87500000  0.06250000  0.34551894  1
  Zr  Zr1984  1  0.68750000  0.00000000  0.35329197  1
  Zr  Zr1985  1  0.56250000  0.00000000  0.36883801  1
  Zr  Zr1986  1  0.81250000  0.25000000  0.35329197  1
  Zr  Zr1987  1  0.93750000  0.25000000  0.36883801  1
  N  N1988  1  0.53150000  0.03150000  0.37856984  1
  N  N1989  1  0.59350000  0.15650000  0.39797130  1
  N  N1990  1  0.53150000  0.46850000  0.39019828  1
  N  N1991  1  0.59350000  0.34350000  0.40188890  1
  N  N1992  1  0.71850000  0.03150000  0.40574432  1
  N  N1993  1  0.90650000  0.09350000  0.39797130  1
  N  N1994  1  0.71850000  0.46850000  0.39411588  1
  N  N1995  1  0.90650000  0.40650000  0.40188890  1
  N  N1996  1  0.65650000  0.15650000  0.38634286  1
  N  N1997  1  0.78150000  0.21850000  0.40574432  1
  N  N1998  1  0.84350000  0.09350000  0.38634286  1
  N  N1999  1  0.84350000  0.40650000  0.38242526  1
  N  N2000  1  0.78150000  0.28150000  0.39411588  1
  N  N2001  1  0.96850000  0.28150000  0.39019828  1
  N  N2002  1  0.65650000  0.34350000  0.38242526  1
  N  N2003  1  0.96850000  0.21850000  0.37856984  1
  Zr  Zr2004  1  0.62500000  0.18750000  0.37661103  1
  Zr  Zr2005  1  0.50000000  0.12500000  0.38827057  1
  Zr  Zr2006  1  0.62500000  0.31250000  0.39215708  1
  Zr  Zr2007  1  0.50000000  0.37500000  0.38049755  1
  Zr  Zr2008  1  0.75000000  0.12500000  0.39604359  1
  Zr  Zr2009  1  0.87500000  0.43750000  0.39215708  1
  Zr  Zr2010  1  0.75000000  0.37500000  0.40381661  1
  Zr  Zr2011  1  0.87500000  0.06250000  0.37661103  1
  Zr  Zr2012  1  0.68750000  0.00000000  0.38438406  1
  Zr  Zr2013  1  0.56250000  0.00000000  0.39993010  1
  Zr  Zr2014  1  0.81250000  0.25000000  0.38438406  1
  Zr  Zr2015  1  0.93750000  0.25000000  0.39993010  1
  N  N2016  1  0.53150000  0.03150000  0.40966193  1
  N  N2017  1  0.59350000  0.15650000  0.42906339  1
  N  N2018  1  0.53150000  0.46850000  0.42129037  1
  N  N2019  1  0.59350000  0.34350000  0.43298100  1
  N  N2020  1  0.71850000  0.03150000  0.43683642  1
  N  N2021  1  0.90650000  0.09350000  0.42906339  1
  N  N2022  1  0.71850000  0.46850000  0.42520797  1
  N  N2023  1  0.90650000  0.40650000  0.43298100  1
  N  N2024  1  0.65650000  0.15650000  0.41743495  1
  N  N2025  1  0.78150000  0.21850000  0.43683642  1
  N  N2026  1  0.84350000  0.09350000  0.41743495  1
  N  N2027  1  0.84350000  0.40650000  0.41351735  1
  N  N2028  1  0.78150000  0.28150000  0.42520797  1
  N  N2029  1  0.96850000  0.28150000  0.42129037  1
  N  N2030  1  0.65650000  0.34350000  0.41351735  1
  N  N2031  1  0.96850000  0.21850000  0.40966193  1
  Zr  Zr2032  1  0.62500000  0.18750000  0.40770313  1
  Zr  Zr2033  1  0.50000000  0.12500000  0.41936266  1
  Zr  Zr2034  1  0.62500000  0.31250000  0.42324917  1
  Zr  Zr2035  1  0.50000000  0.37500000  0.41158964  1
  Zr  Zr2036  1  0.75000000  0.12500000  0.42713568  1
  Zr  Zr2037  1  0.87500000  0.43750000  0.42324917  1
  Zr  Zr2038  1  0.75000000  0.37500000  0.43490871  1
  Zr  Zr2039  1  0.87500000  0.06250000  0.40770313  1
  Zr  Zr2040  1  0.68750000  0.00000000  0.41547615  1
  Zr  Zr2041  1  0.56250000  0.00000000  0.43102219  1
  Zr  Zr2042  1  0.81250000  0.25000000  0.41547615  1
  Zr  Zr2043  1  0.93750000  0.25000000  0.43102219  1
  N  N2044  1  0.53150000  0.03150000  0.44075402  1
  N  N2045  1  0.59350000  0.15650000  0.46015548  1
  N  N2046  1  0.53150000  0.46850000  0.45238246  1
  N  N2047  1  0.59350000  0.34350000  0.46407309  1
  N  N2048  1  0.71850000  0.03150000  0.46792851  1
  N  N2049  1  0.90650000  0.09350000  0.46015548  1
  N  N2050  1  0.71850000  0.46850000  0.45630007  1
  N  N2051  1  0.90650000  0.40650000  0.46407309  1
  N  N2052  1  0.65650000  0.15650000  0.44852704  1
  N  N2053  1  0.78150000  0.21850000  0.46792851  1
  N  N2054  1  0.84350000  0.09350000  0.44852704  1
  N  N2055  1  0.84350000  0.40650000  0.44460944  1
  N  N2056  1  0.78150000  0.28150000  0.45630007  1
  N  N2057  1  0.96850000  0.28150000  0.45238246  1
  N  N2058  1  0.65650000  0.34350000  0.44460944  1
  N  N2059  1  0.96850000  0.21850000  0.44075402  1
  Zr  Zr2060  1  0.62500000  0.18750000  0.43879522  1
  Zr  Zr2061  1  0.50000000  0.12500000  0.45045475  1
  Zr  Zr2062  1  0.62500000  0.31250000  0.45434126  1
  Zr  Zr2063  1  0.50000000  0.37500000  0.44268173  1
  Zr  Zr2064  1  0.75000000  0.12500000  0.45822777  1
  Zr  Zr2065  1  0.87500000  0.43750000  0.45434126  1
  Zr  Zr2066  1  0.75000000  0.37500000  0.46600080  1
  Zr  Zr2067  1  0.87500000  0.06250000  0.43879522  1
  Zr  Zr2068  1  0.68750000  0.00000000  0.44656824  1
  Zr  Zr2069  1  0.56250000  0.00000000  0.46211429  1
  Zr  Zr2070  1  0.81250000  0.25000000  0.44656824  1
  Zr  Zr2071  1  0.93750000  0.25000000  0.46211429  1
  N  N2072  1  0.53150000  0.03150000  0.47184611  1
  N  N2073  1  0.59350000  0.15650000  0.49124758  1
  N  N2074  1  0.53150000  0.46850000  0.48347455  1
  N  N2075  1  0.59350000  0.34350000  0.49516518  1
  N  N2076  1  0.71850000  0.03150000  0.49902060  1
  N  N2077  1  0.90650000  0.09350000  0.49124758  1
  N  N2078  1  0.71850000  0.46850000  0.48739216  1
  N  N2079  1  0.90650000  0.40650000  0.49516518  1
  N  N2080  1  0.65650000  0.15650000  0.47961913  1
  N  N2081  1  0.78150000  0.21850000  0.49902060  1
  N  N2082  1  0.84350000  0.09350000  0.47961913  1
  N  N2083  1  0.84350000  0.40650000  0.47570153  1
  N  N2084  1  0.78150000  0.28150000  0.48739216  1
  N  N2085  1  0.96850000  0.28150000  0.48347455  1
  N  N2086  1  0.65650000  0.34350000  0.47570153  1
  N  N2087  1  0.96850000  0.21850000  0.47184611  1
  Zr  Zr2088  1  0.62500000  0.18750000  0.46988731  1
  Zr  Zr2089  1  0.50000000  0.12500000  0.48154684  1
  Zr  Zr2090  1  0.62500000  0.31250000  0.48543336  1
  Zr  Zr2091  1  0.50000000  0.37500000  0.47377382  1
  Zr  Zr2092  1  0.75000000  0.12500000  0.48931987  1
  Zr  Zr2093  1  0.87500000  0.43750000  0.48543336  1
  Zr  Zr2094  1  0.75000000  0.37500000  0.49709289  1
  Zr  Zr2095  1  0.87500000  0.06250000  0.46988731  1
  Zr  Zr2096  1  0.68750000  0.00000000  0.47766033  1
  Zr  Zr2097  1  0.56250000  0.00000000  0.49320638  1
  Zr  Zr2098  1  0.81250000  0.25000000  0.47766033  1
  Zr  Zr2099  1  0.93750000  0.25000000  0.49320638  1
  N  N2100  1  0.53150000  0.03150000  0.50293820  1
  N  N2101  1  0.59350000  0.15650000  0.52233967  1
  N  N2102  1  0.53150000  0.46850000  0.51456664  1
  N  N2103  1  0.59350000  0.34350000  0.52625727  1
  N  N2104  1  0.71850000  0.03150000  0.53011269  1
  N  N2105  1  0.90650000  0.09350000  0.52233967  1
  N  N2106  1  0.71850000  0.46850000  0.51848425  1
  N  N2107  1  0.90650000  0.40650000  0.52625727  1
  N  N2108  1  0.65650000  0.15650000  0.51071123  1
  N  N2109  1  0.78150000  0.21850000  0.53011269  1
  N  N2110  1  0.84350000  0.09350000  0.51071123  1
  N  N2111  1  0.84350000  0.40650000  0.50679362  1
  N  N2112  1  0.78150000  0.28150000  0.51848425  1
  N  N2113  1  0.96850000  0.28150000  0.51456664  1
  N  N2114  1  0.65650000  0.34350000  0.50679362  1
  N  N2115  1  0.96850000  0.21850000  0.50293820  1
  Zr  Zr2116  1  0.62500000  0.18750000  0.50097940  1
  Zr  Zr2117  1  0.50000000  0.12500000  0.51263894  1
  Zr  Zr2118  1  0.62500000  0.31250000  0.51652545  1
  Zr  Zr2119  1  0.50000000  0.37500000  0.50486591  1
  Zr  Zr2120  1  0.75000000  0.12500000  0.52041196  1
  Zr  Zr2121  1  0.87500000  0.43750000  0.51652545  1
  Zr  Zr2122  1  0.75000000  0.37500000  0.52818498  1
  Zr  Zr2123  1  0.87500000  0.06250000  0.50097940  1
  Zr  Zr2124  1  0.68750000  0.00000000  0.50875242  1
  Zr  Zr2125  1  0.56250000  0.00000000  0.52429847  1
  Zr  Zr2126  1  0.81250000  0.25000000  0.50875242  1
  Zr  Zr2127  1  0.93750000  0.25000000  0.52429847  1
  N  N2128  1  0.53150000  0.03150000  0.53403029  1
  N  N2129  1  0.59350000  0.15650000  0.55343176  1
  N  N2130  1  0.53150000  0.46850000  0.54565874  1
  N  N2131  1  0.59350000  0.34350000  0.55734936  1
  N  N2132  1  0.71850000  0.03150000  0.56120478  1
  N  N2133  1  0.90650000  0.09350000  0.55343176  1
  N  N2134  1  0.71850000  0.46850000  0.54957634  1
  N  N2135  1  0.90650000  0.40650000  0.55734936  1
  N  N2136  1  0.65650000  0.15650000  0.54180332  1
  N  N2137  1  0.78150000  0.21850000  0.56120478  1
  N  N2138  1  0.84350000  0.09350000  0.54180332  1
  N  N2139  1  0.84350000  0.40650000  0.53788571  1
  N  N2140  1  0.78150000  0.28150000  0.54957634  1
  N  N2141  1  0.96850000  0.28150000  0.54565874  1
  N  N2142  1  0.65650000  0.34350000  0.53788571  1
  N  N2143  1  0.96850000  0.21850000  0.53403029  1
  Zr  Zr2144  1  0.62500000  0.18750000  0.53207149  1
  Zr  Zr2145  1  0.50000000  0.12500000  0.54373103  1
  Zr  Zr2146  1  0.62500000  0.31250000  0.54761754  1
  Zr  Zr2147  1  0.50000000  0.37500000  0.53595800  1
  Zr  Zr2148  1  0.75000000  0.12500000  0.55150405  1
  Zr  Zr2149  1  0.87500000  0.43750000  0.54761754  1
  Zr  Zr2150  1  0.75000000  0.37500000  0.55927707  1
  Zr  Zr2151  1  0.87500000  0.06250000  0.53207149  1
  Zr  Zr2152  1  0.68750000  0.00000000  0.53984452  1
  Zr  Zr2153  1  0.56250000  0.00000000  0.55539056  1
  Zr  Zr2154  1  0.81250000  0.25000000  0.53984452  1
  Zr  Zr2155  1  0.93750000  0.25000000  0.55539056  1
  N  N2156  1  0.53150000  0.03150000  0.56512239  1
  N  N2157  1  0.59350000  0.15650000  0.58452385  1
  N  N2158  1  0.53150000  0.46850000  0.57675083  1
  N  N2159  1  0.59350000  0.34350000  0.58844145  1
  N  N2160  1  0.71850000  0.03150000  0.59229687  1
  N  N2161  1  0.90650000  0.09350000  0.58452385  1
  N  N2162  1  0.71850000  0.46850000  0.58066843  1
  N  N2163  1  0.90650000  0.40650000  0.58844145  1
  N  N2164  1  0.65650000  0.15650000  0.57289541  1
  N  N2165  1  0.78150000  0.21850000  0.59229687  1
  N  N2166  1  0.84350000  0.09350000  0.57289541  1
  N  N2167  1  0.84350000  0.40650000  0.56897781  1
  N  N2168  1  0.78150000  0.28150000  0.58066843  1
  N  N2169  1  0.96850000  0.28150000  0.57675083  1
  N  N2170  1  0.65650000  0.34350000  0.56897781  1
  N  N2171  1  0.96850000  0.21850000  0.56512239  1
  Zr  Zr2172  1  0.62500000  0.18750000  0.56316358  1
  Zr  Zr2173  1  0.50000000  0.12500000  0.57482312  1
  Zr  Zr2174  1  0.62500000  0.31250000  0.57870963  1
  Zr  Zr2175  1  0.50000000  0.37500000  0.56705010  1
  Zr  Zr2176  1  0.75000000  0.12500000  0.58259614  1
  Zr  Zr2177  1  0.87500000  0.43750000  0.57870963  1
  Zr  Zr2178  1  0.75000000  0.37500000  0.59036916  1
  Zr  Zr2179  1  0.87500000  0.06250000  0.56316358  1
  Zr  Zr2180  1  0.68750000  0.00000000  0.57093661  1
  Zr  Zr2181  1  0.56250000  0.00000000  0.58648265  1
  Zr  Zr2182  1  0.81250000  0.25000000  0.57093661  1
  Zr  Zr2183  1  0.93750000  0.25000000  0.58648265  1
  N  N2184  1  0.53150000  0.03150000  0.59621448  1
  N  N2185  1  0.59350000  0.15650000  0.61561594  1
  N  N2186  1  0.53150000  0.46850000  0.60784292  1
  N  N2187  1  0.59350000  0.34350000  0.61953355  1
  N  N2188  1  0.71850000  0.03150000  0.62338897  1
  N  N2189  1  0.90650000  0.09350000  0.61561594  1
  N  N2190  1  0.71850000  0.46850000  0.61176052  1
  N  N2191  1  0.90650000  0.40650000  0.61953355  1
  N  N2192  1  0.65650000  0.15650000  0.60398750  1
  N  N2193  1  0.78150000  0.21850000  0.62338897  1
  N  N2194  1  0.84350000  0.09350000  0.60398750  1
  N  N2195  1  0.84350000  0.40650000  0.60006990  1
  N  N2196  1  0.78150000  0.28150000  0.61176052  1
  N  N2197  1  0.96850000  0.28150000  0.60784292  1
  N  N2198  1  0.65650000  0.34350000  0.60006990  1
  N  N2199  1  0.96850000  0.21850000  0.59621448  1
  Zr  Zr2200  1  0.62500000  0.18750000  0.59425568  1
  Zr  Zr2201  1  0.50000000  0.12500000  0.60591521  1
  Zr  Zr2202  1  0.62500000  0.31250000  0.60980172  1
  Zr  Zr2203  1  0.50000000  0.37500000  0.59814219  1
  Zr  Zr2204  1  0.75000000  0.12500000  0.61368823  1
  Zr  Zr2205  1  0.87500000  0.43750000  0.60980172  1
  Zr  Zr2206  1  0.75000000  0.37500000  0.62146126  1
  Zr  Zr2207  1  0.87500000  0.06250000  0.59425568  1
  Zr  Zr2208  1  0.68750000  0.00000000  0.60202870  1
  Zr  Zr2209  1  0.56250000  0.00000000  0.61757474  1
  Zr  Zr2210  1  0.81250000  0.25000000  0.60202870  1
  Zr  Zr2211  1  0.93750000  0.25000000  0.61757474  1
  N  N2212  1  0.53150000  0.03150000  0.62730657  1
  N  N2213  1  0.59350000  0.15650000  0.64670803  1
  N  N2214  1  0.53150000  0.46850000  0.63893501  1
  N  N2215  1  0.59350000  0.34350000  0.65062564  1
  N  N2216  1  0.71850000  0.03150000  0.65448106  1
  N  N2217  1  0.90650000  0.09350000  0.64670803  1
  N  N2218  1  0.71850000  0.46850000  0.64285262  1
  N  N2219  1  0.90650000  0.40650000  0.65062564  1
  N  N2220  1  0.65650000  0.15650000  0.63507959  1
  N  N2221  1  0.78150000  0.21850000  0.65448106  1
  N  N2222  1  0.84350000  0.09350000  0.63507959  1
  N  N2223  1  0.84350000  0.40650000  0.63116199  1
  N  N2224  1  0.78150000  0.28150000  0.64285262  1
  N  N2225  1  0.96850000  0.28150000  0.63893501  1
  N  N2226  1  0.65650000  0.34350000  0.63116199  1
  N  N2227  1  0.96850000  0.21850000  0.62730657  1
  Zr  Zr2228  1  0.62500000  0.18750000  0.62534777  1
  Zr  Zr2229  1  0.50000000  0.12500000  0.63700730  1
  Zr  Zr2230  1  0.62500000  0.31250000  0.64089381  1
  Zr  Zr2231  1  0.50000000  0.37500000  0.62923428  1
  Zr  Zr2232  1  0.75000000  0.12500000  0.64478033  1
  Zr  Zr2233  1  0.87500000  0.43750000  0.64089381  1
  Zr  Zr2234  1  0.75000000  0.37500000  0.65255335  1
  Zr  Zr2235  1  0.87500000  0.06250000  0.62534777  1
  Zr  Zr2236  1  0.68750000  0.00000000  0.63312079  1
  Zr  Zr2237  1  0.56250000  0.00000000  0.64866684  1
  Zr  Zr2238  1  0.81250000  0.25000000  0.63312079  1
  Zr  Zr2239  1  0.93750000  0.25000000  0.64866684  1
  N  N2240  1  0.53150000  0.03150000  0.65839866  1
  N  N2241  1  0.59350000  0.15650000  0.67780013  1
  N  N2242  1  0.53150000  0.46850000  0.67002710  1
  N  N2243  1  0.59350000  0.34350000  0.68171773  1
  N  N2244  1  0.71850000  0.03150000  0.68557315  1
  N  N2245  1  0.90650000  0.09350000  0.67780013  1
  N  N2246  1  0.71850000  0.46850000  0.67394471  1
  N  N2247  1  0.90650000  0.40650000  0.68171773  1
  N  N2248  1  0.65650000  0.15650000  0.66617168  1
  N  N2249  1  0.78150000  0.21850000  0.68557315  1
  N  N2250  1  0.84350000  0.09350000  0.66617168  1
  N  N2251  1  0.84350000  0.40650000  0.66225408  1
  N  N2252  1  0.78150000  0.28150000  0.67394471  1
  N  N2253  1  0.96850000  0.28150000  0.67002710  1
  N  N2254  1  0.65650000  0.34350000  0.66225408  1
  N  N2255  1  0.96850000  0.21850000  0.65839866  1
  Zr  Zr2256  1  0.62500000  0.18750000  0.65643986  1
  Zr  Zr2257  1  0.50000000  0.12500000  0.66809939  1
  Zr  Zr2258  1  0.62500000  0.31250000  0.67198591  1
  Zr  Zr2259  1  0.50000000  0.37500000  0.66032637  1
  Zr  Zr2260  1  0.75000000  0.12500000  0.67587242  1
  Zr  Zr2261  1  0.87500000  0.43750000  0.67198591  1
  Zr  Zr2262  1  0.75000000  0.37500000  0.68364544  1
  Zr  Zr2263  1  0.87500000  0.06250000  0.65643986  1
  Zr  Zr2264  1  0.68750000  0.00000000  0.66421288  1
  Zr  Zr2265  1  0.56250000  0.00000000  0.67975893  1
  Zr  Zr2266  1  0.81250000  0.25000000  0.66421288  1
  Zr  Zr2267  1  0.93750000  0.25000000  0.67975893  1
  N  N2268  1  0.53150000  0.03150000  0.68949075  1
  N  N2269  1  0.59350000  0.15650000  0.70889222  1
  N  N2270  1  0.53150000  0.46850000  0.70111920  1
  N  N2271  1  0.59350000  0.34350000  0.71280982  1
  N  N2272  1  0.71850000  0.03150000  0.71666524  1
  N  N2273  1  0.90650000  0.09350000  0.70889222  1
  N  N2274  1  0.71850000  0.46850000  0.70503680  1
  N  N2275  1  0.90650000  0.40650000  0.71280982  1
  N  N2276  1  0.65650000  0.15650000  0.69726378  1
  N  N2277  1  0.78150000  0.21850000  0.71666524  1
  N  N2278  1  0.84350000  0.09350000  0.69726378  1
  N  N2279  1  0.84350000  0.40650000  0.69334617  1
  N  N2280  1  0.78150000  0.28150000  0.70503680  1
  N  N2281  1  0.96850000  0.28150000  0.70111920  1
  N  N2282  1  0.65650000  0.34350000  0.69334617  1
  N  N2283  1  0.96850000  0.21850000  0.68949075  1
  Zr  Zr2284  1  0.62500000  0.18750000  0.68753195  1
  Zr  Zr2285  1  0.50000000  0.12500000  0.69919149  1
  Zr  Zr2286  1  0.62500000  0.31250000  0.70307800  1
  Zr  Zr2287  1  0.50000000  0.37500000  0.69141846  1
  Zr  Zr2288  1  0.75000000  0.12500000  0.70696451  1
  Zr  Zr2289  1  0.87500000  0.43750000  0.70307800  1
  Zr  Zr2290  1  0.75000000  0.37500000  0.71473753  1
  Zr  Zr2291  1  0.87500000  0.06250000  0.68753195  1
  Zr  Zr2292  1  0.68750000  0.00000000  0.69530497  1
  Zr  Zr2293  1  0.56250000  0.00000000  0.71085102  1
  Zr  Zr2294  1  0.81250000  0.25000000  0.69530497  1
  Zr  Zr2295  1  0.93750000  0.25000000  0.71085102  1
  N  N2296  1  0.53150000  0.03150000  0.72058284  1
  N  N2297  1  0.59350000  0.15650000  0.73998431  1
  N  N2298  1  0.53150000  0.46850000  0.73221129  1
  N  N2299  1  0.59350000  0.34350000  0.74390191  1
  N  N2300  1  0.71850000  0.03150000  0.74775733  1
  N  N2301  1  0.90650000  0.09350000  0.73998431  1
  N  N2302  1  0.71850000  0.46850000  0.73612889  1
  N  N2303  1  0.90650000  0.40650000  0.74390191  1
  N  N2304  1  0.65650000  0.15650000  0.72835587  1
  N  N2305  1  0.78150000  0.21850000  0.74775733  1
  N  N2306  1  0.84350000  0.09350000  0.72835587  1
  N  N2307  1  0.84350000  0.40650000  0.72443826  1
  N  N2308  1  0.78150000  0.28150000  0.73612889  1
  N  N2309  1  0.96850000  0.28150000  0.73221129  1
  N  N2310  1  0.65650000  0.34350000  0.72443826  1
  N  N2311  1  0.96850000  0.21850000  0.72058284  1
  Zr  Zr2312  1  0.62500000  0.18750000  0.71862404  1
  Zr  Zr2313  1  0.50000000  0.12500000  0.73028358  1
  Zr  Zr2314  1  0.62500000  0.31250000  0.73417009  1
  Zr  Zr2315  1  0.50000000  0.37500000  0.72251055  1
  Zr  Zr2316  1  0.75000000  0.12500000  0.73805660  1
  Zr  Zr2317  1  0.87500000  0.43750000  0.73417009  1
  Zr  Zr2318  1  0.75000000  0.37500000  0.74582962  1
  Zr  Zr2319  1  0.87500000  0.06250000  0.71862404  1
  Zr  Zr2320  1  0.68750000  0.00000000  0.72639707  1
  Zr  Zr2321  1  0.56250000  0.00000000  0.74194311  1
  Zr  Zr2322  1  0.81250000  0.25000000  0.72639707  1
  Zr  Zr2323  1  0.93750000  0.25000000  0.74194311  1
  N  N2324  1  0.53150000  0.03150000  0.75167494  1
  N  N2325  1  0.59350000  0.15650000  0.77107640  1
  N  N2326  1  0.53150000  0.46850000  0.76330338  1
  N  N2327  1  0.59350000  0.34350000  0.77499401  1
  N  N2328  1  0.71850000  0.03150000  0.77884942  1
  N  N2329  1  0.90650000  0.09350000  0.77107640  1
  N  N2330  1  0.71850000  0.46850000  0.76722098  1
  N  N2331  1  0.90650000  0.40650000  0.77499401  1
  N  N2332  1  0.65650000  0.15650000  0.75944796  1
  N  N2333  1  0.78150000  0.21850000  0.77884942  1
  N  N2334  1  0.84350000  0.09350000  0.75944796  1
  N  N2335  1  0.84350000  0.40650000  0.75553036  1
  N  N2336  1  0.78150000  0.28150000  0.76722098  1
  N  N2337  1  0.96850000  0.28150000  0.76330338  1
  N  N2338  1  0.65650000  0.34350000  0.75553036  1
  N  N2339  1  0.96850000  0.21850000  0.75167494  1
  Zr  Zr2340  1  0.62500000  0.18750000  0.74971613  1
  Zr  Zr2341  1  0.50000000  0.12500000  0.76137567  1
  Zr  Zr2342  1  0.62500000  0.31250000  0.76526218  1
  Zr  Zr2343  1  0.50000000  0.37500000  0.75360265  1
  Zr  Zr2344  1  0.75000000  0.12500000  0.76914869  1
  Zr  Zr2345  1  0.87500000  0.43750000  0.76526218  1
  Zr  Zr2346  1  0.75000000  0.37500000  0.77692172  1
  Zr  Zr2347  1  0.87500000  0.06250000  0.74971613  1
  Zr  Zr2348  1  0.68750000  0.00000000  0.75748916  1
  Zr  Zr2349  1  0.56250000  0.00000000  0.77303520  1
  Zr  Zr2350  1  0.81250000  0.25000000  0.75748916  1
  Zr  Zr2351  1  0.93750000  0.25000000  0.77303520  1
  N  N2352  1  0.53150000  0.03150000  0.78276703  1
  N  N2353  1  0.59350000  0.15650000  0.80216849  1
  N  N2354  1  0.53150000  0.46850000  0.79439547  1
  N  N2355  1  0.59350000  0.34350000  0.80608610  1
  N  N2356  1  0.71850000  0.03150000  0.80994152  1
  N  N2357  1  0.90650000  0.09350000  0.80216849  1
  N  N2358  1  0.71850000  0.46850000  0.79831307  1
  N  N2359  1  0.90650000  0.40650000  0.80608610  1
  N  N2360  1  0.65650000  0.15650000  0.79054005  1
  N  N2361  1  0.78150000  0.21850000  0.80994152  1
  N  N2362  1  0.84350000  0.09350000  0.79054005  1
  N  N2363  1  0.84350000  0.40650000  0.78662245  1
  N  N2364  1  0.78150000  0.28150000  0.79831307  1
  N  N2365  1  0.96850000  0.28150000  0.79439547  1
  N  N2366  1  0.65650000  0.34350000  0.78662245  1
  N  N2367  1  0.96850000  0.21850000  0.78276703  1
  Zr  Zr2368  1  0.62500000  0.18750000  0.78080823  1
  Zr  Zr2369  1  0.50000000  0.12500000  0.79246776  1
  Zr  Zr2370  1  0.62500000  0.31250000  0.79635427  1
  Zr  Zr2371  1  0.50000000  0.37500000  0.78469474  1
  Zr  Zr2372  1  0.75000000  0.12500000  0.80024078  1
  Zr  Zr2373  1  0.87500000  0.43750000  0.79635427  1
  Zr  Zr2374  1  0.75000000  0.37500000  0.80801381  1
  Zr  Zr2375  1  0.87500000  0.06250000  0.78080823  1
  Zr  Zr2376  1  0.68750000  0.00000000  0.78858125  1
  Zr  Zr2377  1  0.56250000  0.00000000  0.80412730  1
  Zr  Zr2378  1  0.81250000  0.25000000  0.78858125  1
  Zr  Zr2379  1  0.93750000  0.25000000  0.80412730  1
  N  N2380  1  0.53150000  0.03150000  0.81385912  1
  N  N2381  1  0.59350000  0.15650000  0.83326059  1
  N  N2382  1  0.53150000  0.46850000  0.82548756  1
  N  N2383  1  0.59350000  0.34350000  0.83717819  1
  N  N2384  1  0.71850000  0.03150000  0.84103361  1
  N  N2385  1  0.90650000  0.09350000  0.83326059  1
  N  N2386  1  0.71850000  0.46850000  0.82940517  1
  N  N2387  1  0.90650000  0.40650000  0.83717819  1
  N  N2388  1  0.65650000  0.15650000  0.82163214  1
  N  N2389  1  0.78150000  0.21850000  0.84103361  1
  N  N2390  1  0.84350000  0.09350000  0.82163214  1
  N  N2391  1  0.84350000  0.40650000  0.81771454  1
  N  N2392  1  0.78150000  0.28150000  0.82940517  1
  N  N2393  1  0.96850000  0.28150000  0.82548756  1
  N  N2394  1  0.65650000  0.34350000  0.81771454  1
  N  N2395  1  0.96850000  0.21850000  0.81385912  1
  Zr  Zr2396  1  0.62500000  0.18750000  0.81190032  1
  Zr  Zr2397  1  0.50000000  0.12500000  0.82355985  1
  Zr  Zr2398  1  0.62500000  0.31250000  0.82744636  1
  Zr  Zr2399  1  0.50000000  0.37500000  0.81578683  1
  Zr  Zr2400  1  0.75000000  0.12500000  0.83133288  1
  Zr  Zr2401  1  0.87500000  0.43750000  0.82744636  1
  Zr  Zr2402  1  0.75000000  0.37500000  0.83910590  1
  Zr  Zr2403  1  0.87500000  0.06250000  0.81190032  1
  Zr  Zr2404  1  0.68750000  0.00000000  0.81967334  1
  Zr  Zr2405  1  0.56250000  0.00000000  0.83521939  1
  Zr  Zr2406  1  0.81250000  0.25000000  0.81967334  1
  Zr  Zr2407  1  0.93750000  0.25000000  0.83521939  1
  N  N2408  1  0.53150000  0.03150000  0.84495121  1
  N  N2409  1  0.59350000  0.15650000  0.86435268  1
  N  N2410  1  0.53150000  0.46850000  0.85657965  1
  N  N2411  1  0.59350000  0.34350000  0.86827028  1
  N  N2412  1  0.71850000  0.03150000  0.87212570  1
  N  N2413  1  0.90650000  0.09350000  0.86435268  1
  N  N2414  1  0.71850000  0.46850000  0.86049726  1
  N  N2415  1  0.90650000  0.40650000  0.86827028  1
  N  N2416  1  0.65650000  0.15650000  0.85272423  1
  N  N2417  1  0.78150000  0.21850000  0.87212570  1
  N  N2418  1  0.84350000  0.09350000  0.85272423  1
  N  N2419  1  0.84350000  0.40650000  0.84880663  1
  N  N2420  1  0.78150000  0.28150000  0.86049726  1
  N  N2421  1  0.96850000  0.28150000  0.85657965  1
  N  N2422  1  0.65650000  0.34350000  0.84880663  1
  N  N2423  1  0.96850000  0.21850000  0.84495121  1
  Zr  Zr2424  1  0.62500000  0.18750000  0.84299241  1
  Zr  Zr2425  1  0.50000000  0.12500000  0.85465194  1
  Zr  Zr2426  1  0.62500000  0.31250000  0.85853846  1
  Zr  Zr2427  1  0.50000000  0.37500000  0.84687892  1
  Zr  Zr2428  1  0.75000000  0.12500000  0.86242497  1
  Zr  Zr2429  1  0.87500000  0.43750000  0.85853846  1
  Zr  Zr2430  1  0.75000000  0.37500000  0.87019799  1
  Zr  Zr2431  1  0.87500000  0.06250000  0.84299241  1
  Zr  Zr2432  1  0.68750000  0.00000000  0.85076543  1
  Zr  Zr2433  1  0.56250000  0.00000000  0.86631148  1
  Zr  Zr2434  1  0.81250000  0.25000000  0.85076543  1
  Zr  Zr2435  1  0.93750000  0.25000000  0.86631148  1
  N  N2436  1  0.53150000  0.03150000  0.87604330  1
  N  N2437  1  0.59350000  0.15650000  0.89544477  1
  N  N2438  1  0.53150000  0.46850000  0.88767175  1
  N  N2439  1  0.59350000  0.34350000  0.89936237  1
  N  N2440  1  0.71850000  0.03150000  0.90321779  1
  N  N2441  1  0.90650000  0.09350000  0.89544477  1
  N  N2442  1  0.71850000  0.46850000  0.89158935  1
  N  N2443  1  0.90650000  0.40650000  0.89936237  1
  N  N2444  1  0.65650000  0.15650000  0.88381633  1
  N  N2445  1  0.78150000  0.21850000  0.90321779  1
  N  N2446  1  0.84350000  0.09350000  0.88381633  1
  N  N2447  1  0.84350000  0.40650000  0.87989872  1
  N  N2448  1  0.78150000  0.28150000  0.89158935  1
  N  N2449  1  0.96850000  0.28150000  0.88767175  1
  N  N2450  1  0.65650000  0.34350000  0.87989872  1
  N  N2451  1  0.96850000  0.21850000  0.87604330  1
  Zr  Zr2452  1  0.62500000  0.18750000  0.87408450  1
  Zr  Zr2453  1  0.50000000  0.12500000  0.88574404  1
  Zr  Zr2454  1  0.62500000  0.31250000  0.88963055  1
  Zr  Zr2455  1  0.50000000  0.37500000  0.87797101  1
  Zr  Zr2456  1  0.75000000  0.12500000  0.89351706  1
  Zr  Zr2457  1  0.87500000  0.43750000  0.88963055  1
  Zr  Zr2458  1  0.75000000  0.37500000  0.90129008  1
  Zr  Zr2459  1  0.87500000  0.06250000  0.87408450  1
  Zr  Zr2460  1  0.68750000  0.00000000  0.88185752  1
  Zr  Zr2461  1  0.56250000  0.00000000  0.89740357  1
  Zr  Zr2462  1  0.81250000  0.25000000  0.88185752  1
  Zr  Zr2463  1  0.93750000  0.25000000  0.89740357  1
  N  N2464  1  0.53150000  0.03150000  0.90713540  1
  N  N2465  1  0.59350000  0.15650000  0.92653686  1
  N  N2466  1  0.53150000  0.46850000  0.91876384  1
  N  N2467  1  0.59350000  0.34350000  0.93045446  1
  N  N2468  1  0.71850000  0.03150000  0.93430988  1
  N  N2469  1  0.90650000  0.09350000  0.92653686  1
  N  N2470  1  0.71850000  0.46850000  0.92268144  1
  N  N2471  1  0.90650000  0.40650000  0.93045446  1
  N  N2472  1  0.65650000  0.15650000  0.91490842  1
  N  N2473  1  0.78150000  0.21850000  0.93430988  1
  N  N2474  1  0.84350000  0.09350000  0.91490842  1
  N  N2475  1  0.84350000  0.40650000  0.91099081  1
  N  N2476  1  0.78150000  0.28150000  0.92268144  1
  N  N2477  1  0.96850000  0.28150000  0.91876384  1
  N  N2478  1  0.65650000  0.34350000  0.91099081  1
  N  N2479  1  0.96850000  0.21850000  0.90713540  1
  Zr  Zr2480  1  0.62500000  0.18750000  0.90517659  1
  Zr  Zr2481  1  0.50000000  0.12500000  0.91683613  1
  Zr  Zr2482  1  0.62500000  0.31250000  0.92072264  1
  Zr  Zr2483  1  0.50000000  0.37500000  0.90906310  1
  Zr  Zr2484  1  0.75000000  0.12500000  0.92460915  1
  Zr  Zr2485  1  0.87500000  0.43750000  0.92072264  1
  Zr  Zr2486  1  0.75000000  0.37500000  0.93238217  1
  Zr  Zr2487  1  0.87500000  0.06250000  0.90517659  1
  Zr  Zr2488  1  0.68750000  0.00000000  0.91294962  1
  Zr  Zr2489  1  0.56250000  0.00000000  0.92849566  1
  Zr  Zr2490  1  0.81250000  0.25000000  0.91294962  1
  Zr  Zr2491  1  0.93750000  0.25000000  0.92849566  1
  N  N2492  1  0.53150000  0.03150000  0.93822749  1
  N  N2493  1  0.59350000  0.15650000  0.95762895  1
  N  N2494  1  0.53150000  0.46850000  0.94985593  1
  N  N2495  1  0.59350000  0.34350000  0.96154656  1
  N  N2496  1  0.71850000  0.03150000  0.96540198  1
  N  N2497  1  0.90650000  0.09350000  0.95762895  1
  N  N2498  1  0.71850000  0.46850000  0.95377353  1
  N  N2499  1  0.90650000  0.40650000  0.96154656  1
  N  N2500  1  0.65650000  0.15650000  0.94600051  1
  N  N2501  1  0.78150000  0.21850000  0.96540198  1
  N  N2502  1  0.84350000  0.09350000  0.94600051  1
  N  N2503  1  0.84350000  0.40650000  0.94208291  1
  N  N2504  1  0.78150000  0.28150000  0.95377353  1
  N  N2505  1  0.96850000  0.28150000  0.94985593  1
  N  N2506  1  0.65650000  0.34350000  0.94208291  1
  N  N2507  1  0.96850000  0.21850000  0.93822749  1
  Zr  Zr2508  1  0.62500000  0.18750000  0.93626869  1
  Zr  Zr2509  1  0.50000000  0.12500000  0.94792822  1
  Zr  Zr2510  1  0.62500000  0.31250000  0.95181473  1
  Zr  Zr2511  1  0.50000000  0.37500000  0.94015520  1
  Zr  Zr2512  1  0.75000000  0.12500000  0.95570124  1
  Zr  Zr2513  1  0.87500000  0.43750000  0.95181473  1
  Zr  Zr2514  1  0.75000000  0.37500000  0.96347427  1
  Zr  Zr2515  1  0.87500000  0.06250000  0.93626869  1
  Zr  Zr2516  1  0.68750000  0.00000000  0.94404171  1
  Zr  Zr2517  1  0.56250000  0.00000000  0.95958775  1
  Zr  Zr2518  1  0.81250000  0.25000000  0.94404171  1
  Zr  Zr2519  1  0.93750000  0.25000000  0.95958775  1
  N  N2520  1  0.53150000  0.53150000  0.03655683  1
  N  N2521  1  0.59350000  0.65650000  0.05595829  1
  N  N2522  1  0.53150000  0.96850000  0.04818527  1
  N  N2523  1  0.59350000  0.84350000  0.05987590  1
  N  N2524  1  0.71850000  0.53150000  0.06373131  1
  N  N2525  1  0.90650000  0.59350000  0.05595829  1
  N  N2526  1  0.71850000  0.96850000  0.05210287  1
  N  N2527  1  0.90650000  0.90650000  0.05987590  1
  N  N2528  1  0.65650000  0.65650000  0.04432985  1
  N  N2529  1  0.78150000  0.71850000  0.06373131  1
  N  N2530  1  0.84350000  0.59350000  0.04432985  1
  N  N2531  1  0.84350000  0.90650000  0.04041225  1
  N  N2532  1  0.78150000  0.78150000  0.05210287  1
  N  N2533  1  0.96850000  0.78150000  0.04818527  1
  N  N2534  1  0.65650000  0.84350000  0.04041225  1
  N  N2535  1  0.96850000  0.71850000  0.03655683  1
  Zr  Zr2536  1  0.62500000  0.68750000  0.03459802  1
  Zr  Zr2537  1  0.50000000  0.62500000  0.04625756  1
  Zr  Zr2538  1  0.62500000  0.81250000  0.05014407  1
  Zr  Zr2539  1  0.50000000  0.87500000  0.03848454  1
  Zr  Zr2540  1  0.75000000  0.62500000  0.05403058  1
  Zr  Zr2541  1  0.87500000  0.93750000  0.05014407  1
  Zr  Zr2542  1  0.75000000  0.87500000  0.06180361  1
  Zr  Zr2543  1  0.87500000  0.56250000  0.03459802  1
  Zr  Zr2544  1  0.68750000  0.50000000  0.04237105  1
  Zr  Zr2545  1  0.56250000  0.50000000  0.05791709  1
  Zr  Zr2546  1  0.81250000  0.75000000  0.04237105  1
  Zr  Zr2547  1  0.93750000  0.75000000  0.05791709  1
  N  N2548  1  0.53150000  0.53150000  0.06764892  1
  N  N2549  1  0.59350000  0.65650000  0.08705038  1
  N  N2550  1  0.53150000  0.96850000  0.07927736  1
  N  N2551  1  0.59350000  0.84350000  0.09096799  1
  N  N2552  1  0.71850000  0.53150000  0.09482341  1
  N  N2553  1  0.90650000  0.59350000  0.08705038  1
  N  N2554  1  0.71850000  0.96850000  0.08319496  1
  N  N2555  1  0.90650000  0.90650000  0.09096799  1
  N  N2556  1  0.65650000  0.65650000  0.07542194  1
  N  N2557  1  0.78150000  0.71850000  0.09482341  1
  N  N2558  1  0.84350000  0.59350000  0.07542194  1
  N  N2559  1  0.84350000  0.90650000  0.07150434  1
  N  N2560  1  0.78150000  0.78150000  0.08319496  1
  N  N2561  1  0.96850000  0.78150000  0.07927736  1
  N  N2562  1  0.65650000  0.84350000  0.07150434  1
  N  N2563  1  0.96850000  0.71850000  0.06764892  1
  Zr  Zr2564  1  0.62500000  0.68750000  0.06569012  1
  Zr  Zr2565  1  0.50000000  0.62500000  0.07734965  1
  Zr  Zr2566  1  0.62500000  0.81250000  0.08123616  1
  Zr  Zr2567  1  0.50000000  0.87500000  0.06957663  1
  Zr  Zr2568  1  0.75000000  0.62500000  0.08512267  1
  Zr  Zr2569  1  0.87500000  0.93750000  0.08123616  1
  Zr  Zr2570  1  0.75000000  0.87500000  0.09289570  1
  Zr  Zr2571  1  0.87500000  0.56250000  0.06569012  1
  Zr  Zr2572  1  0.68750000  0.50000000  0.07346314  1
  Zr  Zr2573  1  0.56250000  0.50000000  0.08900919  1
  Zr  Zr2574  1  0.81250000  0.75000000  0.07346314  1
  Zr  Zr2575  1  0.93750000  0.75000000  0.08900919  1
  N  N2576  1  0.53150000  0.53150000  0.09874101  1
  N  N2577  1  0.59350000  0.65650000  0.11814248  1
  N  N2578  1  0.53150000  0.96850000  0.11036945  1
  N  N2579  1  0.59350000  0.84350000  0.12206008  1
  N  N2580  1  0.71850000  0.53150000  0.12591550  1
  N  N2581  1  0.90650000  0.59350000  0.11814248  1
  N  N2582  1  0.71850000  0.96850000  0.11428706  1
  N  N2583  1  0.90650000  0.90650000  0.12206008  1
  N  N2584  1  0.65650000  0.65650000  0.10651403  1
  N  N2585  1  0.78150000  0.71850000  0.12591550  1
  N  N2586  1  0.84350000  0.59350000  0.10651403  1
  N  N2587  1  0.84350000  0.90650000  0.10259643  1
  N  N2588  1  0.78150000  0.78150000  0.11428706  1
  N  N2589  1  0.96850000  0.78150000  0.11036945  1
  N  N2590  1  0.65650000  0.84350000  0.10259643  1
  N  N2591  1  0.96850000  0.71850000  0.09874101  1
  Zr  Zr2592  1  0.62500000  0.68750000  0.09678221  1
  Zr  Zr2593  1  0.50000000  0.62500000  0.10844174  1
  Zr  Zr2594  1  0.62500000  0.81250000  0.11232825  1
  Zr  Zr2595  1  0.50000000  0.87500000  0.10066872  1
  Zr  Zr2596  1  0.75000000  0.62500000  0.11621477  1
  Zr  Zr2597  1  0.87500000  0.93750000  0.11232825  1
  Zr  Zr2598  1  0.75000000  0.87500000  0.12398779  1
  Zr  Zr2599  1  0.87500000  0.56250000  0.09678221  1
  Zr  Zr2600  1  0.68750000  0.50000000  0.10455523  1
  Zr  Zr2601  1  0.56250000  0.50000000  0.12010128  1
  Zr  Zr2602  1  0.81250000  0.75000000  0.10455523  1
  Zr  Zr2603  1  0.93750000  0.75000000  0.12010128  1
  N  N2604  1  0.53150000  0.53150000  0.12983310  1
  N  N2605  1  0.59350000  0.65650000  0.14923457  1
  N  N2606  1  0.53150000  0.96850000  0.14146154  1
  N  N2607  1  0.59350000  0.84350000  0.15315217  1
  N  N2608  1  0.71850000  0.53150000  0.15700759  1
  N  N2609  1  0.90650000  0.59350000  0.14923457  1
  N  N2610  1  0.71850000  0.96850000  0.14537915  1
  N  N2611  1  0.90650000  0.90650000  0.15315217  1
  N  N2612  1  0.65650000  0.65650000  0.13760612  1
  N  N2613  1  0.78150000  0.71850000  0.15700759  1
  N  N2614  1  0.84350000  0.59350000  0.13760612  1
  N  N2615  1  0.84350000  0.90650000  0.13368852  1
  N  N2616  1  0.78150000  0.78150000  0.14537915  1
  N  N2617  1  0.96850000  0.78150000  0.14146154  1
  N  N2618  1  0.65650000  0.84350000  0.13368852  1
  N  N2619  1  0.96850000  0.71850000  0.12983310  1
  Zr  Zr2620  1  0.62500000  0.68750000  0.12787430  1
  Zr  Zr2621  1  0.50000000  0.62500000  0.13953383  1
  Zr  Zr2622  1  0.62500000  0.81250000  0.14342035  1
  Zr  Zr2623  1  0.50000000  0.87500000  0.13176081  1
  Zr  Zr2624  1  0.75000000  0.62500000  0.14730686  1
  Zr  Zr2625  1  0.87500000  0.93750000  0.14342035  1
  Zr  Zr2626  1  0.75000000  0.87500000  0.15507988  1
  Zr  Zr2627  1  0.87500000  0.56250000  0.12787430  1
  Zr  Zr2628  1  0.68750000  0.50000000  0.13564732  1
  Zr  Zr2629  1  0.56250000  0.50000000  0.15119337  1
  Zr  Zr2630  1  0.81250000  0.75000000  0.13564732  1
  Zr  Zr2631  1  0.93750000  0.75000000  0.15119337  1
  N  N2632  1  0.53150000  0.53150000  0.16092519  1
  N  N2633  1  0.59350000  0.65650000  0.18032666  1
  N  N2634  1  0.53150000  0.96850000  0.17255364  1
  N  N2635  1  0.59350000  0.84350000  0.18424426  1
  N  N2636  1  0.71850000  0.53150000  0.18809968  1
  N  N2637  1  0.90650000  0.59350000  0.18032666  1
  N  N2638  1  0.71850000  0.96850000  0.17647124  1
  N  N2639  1  0.90650000  0.90650000  0.18424426  1
  N  N2640  1  0.65650000  0.65650000  0.16869822  1
  N  N2641  1  0.78150000  0.71850000  0.18809968  1
  N  N2642  1  0.84350000  0.59350000  0.16869822  1
  N  N2643  1  0.84350000  0.90650000  0.16478061  1
  N  N2644  1  0.78150000  0.78150000  0.17647124  1
  N  N2645  1  0.96850000  0.78150000  0.17255364  1
  N  N2646  1  0.65650000  0.84350000  0.16478061  1
  N  N2647  1  0.96850000  0.71850000  0.16092519  1
  Zr  Zr2648  1  0.62500000  0.68750000  0.15896639  1
  Zr  Zr2649  1  0.50000000  0.62500000  0.17062593  1
  Zr  Zr2650  1  0.62500000  0.81250000  0.17451244  1
  Zr  Zr2651  1  0.50000000  0.87500000  0.16285290  1
  Zr  Zr2652  1  0.75000000  0.62500000  0.17839895  1
  Zr  Zr2653  1  0.87500000  0.93750000  0.17451244  1
  Zr  Zr2654  1  0.75000000  0.87500000  0.18617197  1
  Zr  Zr2655  1  0.87500000  0.56250000  0.15896639  1
  Zr  Zr2656  1  0.68750000  0.50000000  0.16673941  1
  Zr  Zr2657  1  0.56250000  0.50000000  0.18228546  1
  Zr  Zr2658  1  0.81250000  0.75000000  0.16673941  1
  Zr  Zr2659  1  0.93750000  0.75000000  0.18228546  1
  N  N2660  1  0.53150000  0.53150000  0.19201729  1
  N  N2661  1  0.59350000  0.65650000  0.21141875  1
  N  N2662  1  0.53150000  0.96850000  0.20364573  1
  N  N2663  1  0.59350000  0.84350000  0.21533635  1
  N  N2664  1  0.71850000  0.53150000  0.21919177  1
  N  N2665  1  0.90650000  0.59350000  0.21141875  1
  N  N2666  1  0.71850000  0.96850000  0.20756333  1
  N  N2667  1  0.90650000  0.90650000  0.21533635  1
  N  N2668  1  0.65650000  0.65650000  0.19979031  1
  N  N2669  1  0.78150000  0.71850000  0.21919177  1
  N  N2670  1  0.84350000  0.59350000  0.19979031  1
  N  N2671  1  0.84350000  0.90650000  0.19587270  1
  N  N2672  1  0.78150000  0.78150000  0.20756333  1
  N  N2673  1  0.96850000  0.78150000  0.20364573  1
  N  N2674  1  0.65650000  0.84350000  0.19587270  1
  N  N2675  1  0.96850000  0.71850000  0.19201729  1
  Zr  Zr2676  1  0.62500000  0.68750000  0.19005848  1
  Zr  Zr2677  1  0.50000000  0.62500000  0.20171802  1
  Zr  Zr2678  1  0.62500000  0.81250000  0.20560453  1
  Zr  Zr2679  1  0.50000000  0.87500000  0.19394500  1
  Zr  Zr2680  1  0.75000000  0.62500000  0.20949104  1
  Zr  Zr2681  1  0.87500000  0.93750000  0.20560453  1
  Zr  Zr2682  1  0.75000000  0.87500000  0.21726406  1
  Zr  Zr2683  1  0.87500000  0.56250000  0.19005848  1
  Zr  Zr2684  1  0.68750000  0.50000000  0.19783151  1
  Zr  Zr2685  1  0.56250000  0.50000000  0.21337755  1
  Zr  Zr2686  1  0.81250000  0.75000000  0.19783151  1
  Zr  Zr2687  1  0.93750000  0.75000000  0.21337755  1
  N  N2688  1  0.53150000  0.53150000  0.22310938  1
  N  N2689  1  0.59350000  0.65650000  0.24251084  1
  N  N2690  1  0.53150000  0.96850000  0.23473782  1
  N  N2691  1  0.59350000  0.84350000  0.24642845  1
  N  N2692  1  0.71850000  0.53150000  0.25028387  1
  N  N2693  1  0.90650000  0.59350000  0.24251084  1
  N  N2694  1  0.71850000  0.96850000  0.23865542  1
  N  N2695  1  0.90650000  0.90650000  0.24642845  1
  N  N2696  1  0.65650000  0.65650000  0.23088240  1
  N  N2697  1  0.78150000  0.71850000  0.25028387  1
  N  N2698  1  0.84350000  0.59350000  0.23088240  1
  N  N2699  1  0.84350000  0.90650000  0.22696480  1
  N  N2700  1  0.78150000  0.78150000  0.23865542  1
  N  N2701  1  0.96850000  0.78150000  0.23473782  1
  N  N2702  1  0.65650000  0.84350000  0.22696480  1
  N  N2703  1  0.96850000  0.71850000  0.22310938  1
  Zr  Zr2704  1  0.62500000  0.68750000  0.22115058  1
  Zr  Zr2705  1  0.50000000  0.62500000  0.23281011  1
  Zr  Zr2706  1  0.62500000  0.81250000  0.23669662  1
  Zr  Zr2707  1  0.50000000  0.87500000  0.22503709  1
  Zr  Zr2708  1  0.75000000  0.62500000  0.24058313  1
  Zr  Zr2709  1  0.87500000  0.93750000  0.23669662  1
  Zr  Zr2710  1  0.75000000  0.87500000  0.24835616  1
  Zr  Zr2711  1  0.87500000  0.56250000  0.22115058  1
  Zr  Zr2712  1  0.68750000  0.50000000  0.22892360  1
  Zr  Zr2713  1  0.56250000  0.50000000  0.24446964  1
  Zr  Zr2714  1  0.81250000  0.75000000  0.22892360  1
  Zr  Zr2715  1  0.93750000  0.75000000  0.24446964  1
  N  N2716  1  0.53150000  0.53150000  0.25420147  1
  N  N2717  1  0.59350000  0.65650000  0.27360293  1
  N  N2718  1  0.53150000  0.96850000  0.26582991  1
  N  N2719  1  0.59350000  0.84350000  0.27752054  1
  N  N2720  1  0.71850000  0.53150000  0.28137596  1
  N  N2721  1  0.90650000  0.59350000  0.27360293  1
  N  N2722  1  0.71850000  0.96850000  0.26974751  1
  N  N2723  1  0.90650000  0.90650000  0.27752054  1
  N  N2724  1  0.65650000  0.65650000  0.26197449  1
  N  N2725  1  0.78150000  0.71850000  0.28137596  1
  N  N2726  1  0.84350000  0.59350000  0.26197449  1
  N  N2727  1  0.84350000  0.90650000  0.25805689  1
  N  N2728  1  0.78150000  0.78150000  0.26974751  1
  N  N2729  1  0.96850000  0.78150000  0.26582991  1
  N  N2730  1  0.65650000  0.84350000  0.25805689  1
  N  N2731  1  0.96850000  0.71850000  0.25420147  1
  Zr  Zr2732  1  0.62500000  0.68750000  0.25224267  1
  Zr  Zr2733  1  0.50000000  0.62500000  0.26390220  1
  Zr  Zr2734  1  0.62500000  0.81250000  0.26778871  1
  Zr  Zr2735  1  0.50000000  0.87500000  0.25612918  1
  Zr  Zr2736  1  0.75000000  0.62500000  0.27167522  1
  Zr  Zr2737  1  0.87500000  0.93750000  0.26778871  1
  Zr  Zr2738  1  0.75000000  0.87500000  0.27944825  1
  Zr  Zr2739  1  0.87500000  0.56250000  0.25224267  1
  Zr  Zr2740  1  0.68750000  0.50000000  0.26001569  1
  Zr  Zr2741  1  0.56250000  0.50000000  0.27556174  1
  Zr  Zr2742  1  0.81250000  0.75000000  0.26001569  1
  Zr  Zr2743  1  0.93750000  0.75000000  0.27556174  1
  N  N2744  1  0.53150000  0.53150000  0.28529356  1
  N  N2745  1  0.59350000  0.65650000  0.30469503  1
  N  N2746  1  0.53150000  0.96850000  0.29692200  1
  N  N2747  1  0.59350000  0.84350000  0.30861263  1
  N  N2748  1  0.71850000  0.53150000  0.31246805  1
  N  N2749  1  0.90650000  0.59350000  0.30469503  1
  N  N2750  1  0.71850000  0.96850000  0.30083961  1
  N  N2751  1  0.90650000  0.90650000  0.30861263  1
  N  N2752  1  0.65650000  0.65650000  0.29306658  1
  N  N2753  1  0.78150000  0.71850000  0.31246805  1
  N  N2754  1  0.84350000  0.59350000  0.29306658  1
  N  N2755  1  0.84350000  0.90650000  0.28914898  1
  N  N2756  1  0.78150000  0.78150000  0.30083961  1
  N  N2757  1  0.96850000  0.78150000  0.29692200  1
  N  N2758  1  0.65650000  0.84350000  0.28914898  1
  N  N2759  1  0.96850000  0.71850000  0.28529356  1
  Zr  Zr2760  1  0.62500000  0.68750000  0.28333476  1
  Zr  Zr2761  1  0.50000000  0.62500000  0.29499429  1
  Zr  Zr2762  1  0.62500000  0.81250000  0.29888080  1
  Zr  Zr2763  1  0.50000000  0.87500000  0.28722127  1
  Zr  Zr2764  1  0.75000000  0.62500000  0.30276732  1
  Zr  Zr2765  1  0.87500000  0.93750000  0.29888080  1
  Zr  Zr2766  1  0.75000000  0.87500000  0.31054034  1
  Zr  Zr2767  1  0.87500000  0.56250000  0.28333476  1
  Zr  Zr2768  1  0.68750000  0.50000000  0.29110778  1
  Zr  Zr2769  1  0.56250000  0.50000000  0.30665383  1
  Zr  Zr2770  1  0.81250000  0.75000000  0.29110778  1
  Zr  Zr2771  1  0.93750000  0.75000000  0.30665383  1
  N  N2772  1  0.53150000  0.53150000  0.31638565  1
  N  N2773  1  0.59350000  0.65650000  0.33578712  1
  N  N2774  1  0.53150000  0.96850000  0.32801409  1
  N  N2775  1  0.59350000  0.84350000  0.33970472  1
  N  N2776  1  0.71850000  0.53150000  0.34356014  1
  N  N2777  1  0.90650000  0.59350000  0.33578712  1
  N  N2778  1  0.71850000  0.96850000  0.33193170  1
  N  N2779  1  0.90650000  0.90650000  0.33970472  1
  N  N2780  1  0.65650000  0.65650000  0.32415868  1
  N  N2781  1  0.78150000  0.71850000  0.34356014  1
  N  N2782  1  0.84350000  0.59350000  0.32415868  1
  N  N2783  1  0.84350000  0.90650000  0.32024107  1
  N  N2784  1  0.78150000  0.78150000  0.33193170  1
  N  N2785  1  0.96850000  0.78150000  0.32801409  1
  N  N2786  1  0.65650000  0.84350000  0.32024107  1
  N  N2787  1  0.96850000  0.71850000  0.31638565  1
  Zr  Zr2788  1  0.62500000  0.68750000  0.31442685  1
  Zr  Zr2789  1  0.50000000  0.62500000  0.32608638  1
  Zr  Zr2790  1  0.62500000  0.81250000  0.32997290  1
  Zr  Zr2791  1  0.50000000  0.87500000  0.31831336  1
  Zr  Zr2792  1  0.75000000  0.62500000  0.33385941  1
  Zr  Zr2793  1  0.87500000  0.93750000  0.32997290  1
  Zr  Zr2794  1  0.75000000  0.87500000  0.34163243  1
  Zr  Zr2795  1  0.87500000  0.56250000  0.31442685  1
  Zr  Zr2796  1  0.68750000  0.50000000  0.32219987  1
  Zr  Zr2797  1  0.56250000  0.50000000  0.33774592  1
  Zr  Zr2798  1  0.81250000  0.75000000  0.32219987  1
  Zr  Zr2799  1  0.93750000  0.75000000  0.33774592  1
  N  N2800  1  0.53150000  0.53150000  0.34747774  1
  N  N2801  1  0.59350000  0.65650000  0.36687921  1
  N  N2802  1  0.53150000  0.96850000  0.35910619  1
  N  N2803  1  0.59350000  0.84350000  0.37079681  1
  N  N2804  1  0.71850000  0.53150000  0.37465223  1
  N  N2805  1  0.90650000  0.59350000  0.36687921  1
  N  N2806  1  0.71850000  0.96850000  0.36302379  1
  N  N2807  1  0.90650000  0.90650000  0.37079681  1
  N  N2808  1  0.65650000  0.65650000  0.35525077  1
  N  N2809  1  0.78150000  0.71850000  0.37465223  1
  N  N2810  1  0.84350000  0.59350000  0.35525077  1
  N  N2811  1  0.84350000  0.90650000  0.35133316  1
  N  N2812  1  0.78150000  0.78150000  0.36302379  1
  N  N2813  1  0.96850000  0.78150000  0.35910619  1
  N  N2814  1  0.65650000  0.84350000  0.35133316  1
  N  N2815  1  0.96850000  0.71850000  0.34747774  1
  Zr  Zr2816  1  0.62500000  0.68750000  0.34551894  1
  Zr  Zr2817  1  0.50000000  0.62500000  0.35717848  1
  Zr  Zr2818  1  0.62500000  0.81250000  0.36106499  1
  Zr  Zr2819  1  0.50000000  0.87500000  0.34940545  1
  Zr  Zr2820  1  0.75000000  0.62500000  0.36495150  1
  Zr  Zr2821  1  0.87500000  0.93750000  0.36106499  1
  Zr  Zr2822  1  0.75000000  0.87500000  0.37272452  1
  Zr  Zr2823  1  0.87500000  0.56250000  0.34551894  1
  Zr  Zr2824  1  0.68750000  0.50000000  0.35329197  1
  Zr  Zr2825  1  0.56250000  0.50000000  0.36883801  1
  Zr  Zr2826  1  0.81250000  0.75000000  0.35329197  1
  Zr  Zr2827  1  0.93750000  0.75000000  0.36883801  1
  N  N2828  1  0.53150000  0.53150000  0.37856984  1
  N  N2829  1  0.59350000  0.65650000  0.39797130  1
  N  N2830  1  0.53150000  0.96850000  0.39019828  1
  N  N2831  1  0.59350000  0.84350000  0.40188890  1
  N  N2832  1  0.71850000  0.53150000  0.40574432  1
  N  N2833  1  0.90650000  0.59350000  0.39797130  1
  N  N2834  1  0.71850000  0.96850000  0.39411588  1
  N  N2835  1  0.90650000  0.90650000  0.40188890  1
  N  N2836  1  0.65650000  0.65650000  0.38634286  1
  N  N2837  1  0.78150000  0.71850000  0.40574432  1
  N  N2838  1  0.84350000  0.59350000  0.38634286  1
  N  N2839  1  0.84350000  0.90650000  0.38242526  1
  N  N2840  1  0.78150000  0.78150000  0.39411588  1
  N  N2841  1  0.96850000  0.78150000  0.39019828  1
  N  N2842  1  0.65650000  0.84350000  0.38242526  1
  N  N2843  1  0.96850000  0.71850000  0.37856984  1
  Zr  Zr2844  1  0.62500000  0.68750000  0.37661103  1
  Zr  Zr2845  1  0.50000000  0.62500000  0.38827057  1
  Zr  Zr2846  1  0.62500000  0.81250000  0.39215708  1
  Zr  Zr2847  1  0.50000000  0.87500000  0.38049755  1
  Zr  Zr2848  1  0.75000000  0.62500000  0.39604359  1
  Zr  Zr2849  1  0.87500000  0.93750000  0.39215708  1
  Zr  Zr2850  1  0.75000000  0.87500000  0.40381661  1
  Zr  Zr2851  1  0.87500000  0.56250000  0.37661103  1
  Zr  Zr2852  1  0.68750000  0.50000000  0.38438406  1
  Zr  Zr2853  1  0.56250000  0.50000000  0.39993010  1
  Zr  Zr2854  1  0.81250000  0.75000000  0.38438406  1
  Zr  Zr2855  1  0.93750000  0.75000000  0.39993010  1
  N  N2856  1  0.53150000  0.53150000  0.40966193  1
  N  N2857  1  0.59350000  0.65650000  0.42906339  1
  N  N2858  1  0.53150000  0.96850000  0.42129037  1
  N  N2859  1  0.59350000  0.84350000  0.43298100  1
  N  N2860  1  0.71850000  0.53150000  0.43683642  1
  N  N2861  1  0.90650000  0.59350000  0.42906339  1
  N  N2862  1  0.71850000  0.96850000  0.42520797  1
  N  N2863  1  0.90650000  0.90650000  0.43298100  1
  N  N2864  1  0.65650000  0.65650000  0.41743495  1
  N  N2865  1  0.78150000  0.71850000  0.43683642  1
  N  N2866  1  0.84350000  0.59350000  0.41743495  1
  N  N2867  1  0.84350000  0.90650000  0.41351735  1
  N  N2868  1  0.78150000  0.78150000  0.42520797  1
  N  N2869  1  0.96850000  0.78150000  0.42129037  1
  N  N2870  1  0.65650000  0.84350000  0.41351735  1
  N  N2871  1  0.96850000  0.71850000  0.40966193  1
  Zr  Zr2872  1  0.62500000  0.68750000  0.40770313  1
  Zr  Zr2873  1  0.50000000  0.62500000  0.41936266  1
  Zr  Zr2874  1  0.62500000  0.81250000  0.42324917  1
  Zr  Zr2875  1  0.50000000  0.87500000  0.41158964  1
  Zr  Zr2876  1  0.75000000  0.62500000  0.42713568  1
  Zr  Zr2877  1  0.87500000  0.93750000  0.42324917  1
  Zr  Zr2878  1  0.75000000  0.87500000  0.43490871  1
  Zr  Zr2879  1  0.87500000  0.56250000  0.40770313  1
  Zr  Zr2880  1  0.68750000  0.50000000  0.41547615  1
  Zr  Zr2881  1  0.56250000  0.50000000  0.43102219  1
  Zr  Zr2882  1  0.81250000  0.75000000  0.41547615  1
  Zr  Zr2883  1  0.93750000  0.75000000  0.43102219  1
  N  N2884  1  0.53150000  0.53150000  0.44075402  1
  N  N2885  1  0.59350000  0.65650000  0.46015548  1
  N  N2886  1  0.53150000  0.96850000  0.45238246  1
  N  N2887  1  0.59350000  0.84350000  0.46407309  1
  N  N2888  1  0.71850000  0.53150000  0.46792851  1
  N  N2889  1  0.90650000  0.59350000  0.46015548  1
  N  N2890  1  0.71850000  0.96850000  0.45630007  1
  N  N2891  1  0.90650000  0.90650000  0.46407309  1
  N  N2892  1  0.65650000  0.65650000  0.44852704  1
  N  N2893  1  0.78150000  0.71850000  0.46792851  1
  N  N2894  1  0.84350000  0.59350000  0.44852704  1
  N  N2895  1  0.84350000  0.90650000  0.44460944  1
  N  N2896  1  0.78150000  0.78150000  0.45630007  1
  N  N2897  1  0.96850000  0.78150000  0.45238246  1
  N  N2898  1  0.65650000  0.84350000  0.44460944  1
  N  N2899  1  0.96850000  0.71850000  0.44075402  1
  Zr  Zr2900  1  0.62500000  0.68750000  0.43879522  1
  Zr  Zr2901  1  0.50000000  0.62500000  0.45045475  1
  Zr  Zr2902  1  0.62500000  0.81250000  0.45434126  1
  Zr  Zr2903  1  0.50000000  0.87500000  0.44268173  1
  Zr  Zr2904  1  0.75000000  0.62500000  0.45822777  1
  Zr  Zr2905  1  0.87500000  0.93750000  0.45434126  1
  Zr  Zr2906  1  0.75000000  0.87500000  0.46600080  1
  Zr  Zr2907  1  0.87500000  0.56250000  0.43879522  1
  Zr  Zr2908  1  0.68750000  0.50000000  0.44656824  1
  Zr  Zr2909  1  0.56250000  0.50000000  0.46211429  1
  Zr  Zr2910  1  0.81250000  0.75000000  0.44656824  1
  Zr  Zr2911  1  0.93750000  0.75000000  0.46211429  1
  N  N2912  1  0.53150000  0.53150000  0.47184611  1
  N  N2913  1  0.59350000  0.65650000  0.49124758  1
  N  N2914  1  0.53150000  0.96850000  0.48347455  1
  N  N2915  1  0.59350000  0.84350000  0.49516518  1
  N  N2916  1  0.71850000  0.53150000  0.49902060  1
  N  N2917  1  0.90650000  0.59350000  0.49124758  1
  N  N2918  1  0.71850000  0.96850000  0.48739216  1
  N  N2919  1  0.90650000  0.90650000  0.49516518  1
  N  N2920  1  0.65650000  0.65650000  0.47961913  1
  N  N2921  1  0.78150000  0.71850000  0.49902060  1
  N  N2922  1  0.84350000  0.59350000  0.47961913  1
  N  N2923  1  0.84350000  0.90650000  0.47570153  1
  N  N2924  1  0.78150000  0.78150000  0.48739216  1
  N  N2925  1  0.96850000  0.78150000  0.48347455  1
  N  N2926  1  0.65650000  0.84350000  0.47570153  1
  N  N2927  1  0.96850000  0.71850000  0.47184611  1
  Zr  Zr2928  1  0.62500000  0.68750000  0.46988731  1
  Zr  Zr2929  1  0.50000000  0.62500000  0.48154684  1
  Zr  Zr2930  1  0.62500000  0.81250000  0.48543336  1
  Zr  Zr2931  1  0.50000000  0.87500000  0.47377382  1
  Zr  Zr2932  1  0.75000000  0.62500000  0.48931987  1
  Zr  Zr2933  1  0.87500000  0.93750000  0.48543336  1
  Zr  Zr2934  1  0.75000000  0.87500000  0.49709289  1
  Zr  Zr2935  1  0.87500000  0.56250000  0.46988731  1
  Zr  Zr2936  1  0.68750000  0.50000000  0.47766033  1
  Zr  Zr2937  1  0.56250000  0.50000000  0.49320638  1
  Zr  Zr2938  1  0.81250000  0.75000000  0.47766033  1
  Zr  Zr2939  1  0.93750000  0.75000000  0.49320638  1
  N  N2940  1  0.53150000  0.53150000  0.50293820  1
  N  N2941  1  0.59350000  0.65650000  0.52233967  1
  N  N2942  1  0.53150000  0.96850000  0.51456664  1
  N  N2943  1  0.59350000  0.84350000  0.52625727  1
  N  N2944  1  0.71850000  0.53150000  0.53011269  1
  N  N2945  1  0.90650000  0.59350000  0.52233967  1
  N  N2946  1  0.71850000  0.96850000  0.51848425  1
  N  N2947  1  0.90650000  0.90650000  0.52625727  1
  N  N2948  1  0.65650000  0.65650000  0.51071123  1
  N  N2949  1  0.78150000  0.71850000  0.53011269  1
  N  N2950  1  0.84350000  0.59350000  0.51071123  1
  N  N2951  1  0.84350000  0.90650000  0.50679362  1
  N  N2952  1  0.78150000  0.78150000  0.51848425  1
  N  N2953  1  0.96850000  0.78150000  0.51456664  1
  N  N2954  1  0.65650000  0.84350000  0.50679362  1
  N  N2955  1  0.96850000  0.71850000  0.50293820  1
  Zr  Zr2956  1  0.62500000  0.68750000  0.50097940  1
  Zr  Zr2957  1  0.50000000  0.62500000  0.51263894  1
  Zr  Zr2958  1  0.62500000  0.81250000  0.51652545  1
  Zr  Zr2959  1  0.50000000  0.87500000  0.50486591  1
  Zr  Zr2960  1  0.75000000  0.62500000  0.52041196  1
  Zr  Zr2961  1  0.87500000  0.93750000  0.51652545  1
  Zr  Zr2962  1  0.75000000  0.87500000  0.52818498  1
  Zr  Zr2963  1  0.87500000  0.56250000  0.50097940  1
  Zr  Zr2964  1  0.68750000  0.50000000  0.50875242  1
  Zr  Zr2965  1  0.56250000  0.50000000  0.52429847  1
  Zr  Zr2966  1  0.81250000  0.75000000  0.50875242  1
  Zr  Zr2967  1  0.93750000  0.75000000  0.52429847  1
  N  N2968  1  0.53150000  0.53150000  0.53403029  1
  N  N2969  1  0.59350000  0.65650000  0.55343176  1
  N  N2970  1  0.53150000  0.96850000  0.54565874  1
  N  N2971  1  0.59350000  0.84350000  0.55734936  1
  N  N2972  1  0.71850000  0.53150000  0.56120478  1
  N  N2973  1  0.90650000  0.59350000  0.55343176  1
  N  N2974  1  0.71850000  0.96850000  0.54957634  1
  N  N2975  1  0.90650000  0.90650000  0.55734936  1
  N  N2976  1  0.65650000  0.65650000  0.54180332  1
  N  N2977  1  0.78150000  0.71850000  0.56120478  1
  N  N2978  1  0.84350000  0.59350000  0.54180332  1
  N  N2979  1  0.84350000  0.90650000  0.53788571  1
  N  N2980  1  0.78150000  0.78150000  0.54957634  1
  N  N2981  1  0.96850000  0.78150000  0.54565874  1
  N  N2982  1  0.65650000  0.84350000  0.53788571  1
  N  N2983  1  0.96850000  0.71850000  0.53403029  1
  Zr  Zr2984  1  0.62500000  0.68750000  0.53207149  1
  Zr  Zr2985  1  0.50000000  0.62500000  0.54373103  1
  Zr  Zr2986  1  0.62500000  0.81250000  0.54761754  1
  Zr  Zr2987  1  0.50000000  0.87500000  0.53595800  1
  Zr  Zr2988  1  0.75000000  0.62500000  0.55150405  1
  Zr  Zr2989  1  0.87500000  0.93750000  0.54761754  1
  Zr  Zr2990  1  0.75000000  0.87500000  0.55927707  1
  Zr  Zr2991  1  0.87500000  0.56250000  0.53207149  1
  Zr  Zr2992  1  0.68750000  0.50000000  0.53984452  1
  Zr  Zr2993  1  0.56250000  0.50000000  0.55539056  1
  Zr  Zr2994  1  0.81250000  0.75000000  0.53984452  1
  Zr  Zr2995  1  0.93750000  0.75000000  0.55539056  1
  N  N2996  1  0.53150000  0.53150000  0.56512239  1
  N  N2997  1  0.59350000  0.65650000  0.58452385  1
  N  N2998  1  0.53150000  0.96850000  0.57675083  1
  N  N2999  1  0.59350000  0.84350000  0.58844145  1
  N  N3000  1  0.71850000  0.53150000  0.59229687  1
  N  N3001  1  0.90650000  0.59350000  0.58452385  1
  N  N3002  1  0.71850000  0.96850000  0.58066843  1
  N  N3003  1  0.90650000  0.90650000  0.58844145  1
  N  N3004  1  0.65650000  0.65650000  0.57289541  1
  N  N3005  1  0.78150000  0.71850000  0.59229687  1
  N  N3006  1  0.84350000  0.59350000  0.57289541  1
  N  N3007  1  0.84350000  0.90650000  0.56897781  1
  N  N3008  1  0.78150000  0.78150000  0.58066843  1
  N  N3009  1  0.96850000  0.78150000  0.57675083  1
  N  N3010  1  0.65650000  0.84350000  0.56897781  1
  N  N3011  1  0.96850000  0.71850000  0.56512239  1
  Zr  Zr3012  1  0.62500000  0.68750000  0.56316358  1
  Zr  Zr3013  1  0.50000000  0.62500000  0.57482312  1
  Zr  Zr3014  1  0.62500000  0.81250000  0.57870963  1
  Zr  Zr3015  1  0.50000000  0.87500000  0.56705010  1
  Zr  Zr3016  1  0.75000000  0.62500000  0.58259614  1
  Zr  Zr3017  1  0.87500000  0.93750000  0.57870963  1
  Zr  Zr3018  1  0.75000000  0.87500000  0.59036916  1
  Zr  Zr3019  1  0.87500000  0.56250000  0.56316358  1
  Zr  Zr3020  1  0.68750000  0.50000000  0.57093661  1
  Zr  Zr3021  1  0.56250000  0.50000000  0.58648265  1
  Zr  Zr3022  1  0.81250000  0.75000000  0.57093661  1
  Zr  Zr3023  1  0.93750000  0.75000000  0.58648265  1
  N  N3024  1  0.53150000  0.53150000  0.59621448  1
  N  N3025  1  0.59350000  0.65650000  0.61561594  1
  N  N3026  1  0.53150000  0.96850000  0.60784292  1
  N  N3027  1  0.59350000  0.84350000  0.61953355  1
  N  N3028  1  0.71850000  0.53150000  0.62338897  1
  N  N3029  1  0.90650000  0.59350000  0.61561594  1
  N  N3030  1  0.71850000  0.96850000  0.61176052  1
  N  N3031  1  0.90650000  0.90650000  0.61953355  1
  N  N3032  1  0.65650000  0.65650000  0.60398750  1
  N  N3033  1  0.78150000  0.71850000  0.62338897  1
  N  N3034  1  0.84350000  0.59350000  0.60398750  1
  N  N3035  1  0.84350000  0.90650000  0.60006990  1
  N  N3036  1  0.78150000  0.78150000  0.61176052  1
  N  N3037  1  0.96850000  0.78150000  0.60784292  1
  N  N3038  1  0.65650000  0.84350000  0.60006990  1
  N  N3039  1  0.96850000  0.71850000  0.59621448  1
  Zr  Zr3040  1  0.62500000  0.68750000  0.59425568  1
  Zr  Zr3041  1  0.50000000  0.62500000  0.60591521  1
  Zr  Zr3042  1  0.62500000  0.81250000  0.60980172  1
  Zr  Zr3043  1  0.50000000  0.87500000  0.59814219  1
  Zr  Zr3044  1  0.75000000  0.62500000  0.61368823  1
  Zr  Zr3045  1  0.87500000  0.93750000  0.60980172  1
  Zr  Zr3046  1  0.75000000  0.87500000  0.62146126  1
  Zr  Zr3047  1  0.87500000  0.56250000  0.59425568  1
  Zr  Zr3048  1  0.68750000  0.50000000  0.60202870  1
  Zr  Zr3049  1  0.56250000  0.50000000  0.61757474  1
  Zr  Zr3050  1  0.81250000  0.75000000  0.60202870  1
  Zr  Zr3051  1  0.93750000  0.75000000  0.61757474  1
  N  N3052  1  0.53150000  0.53150000  0.62730657  1
  N  N3053  1  0.59350000  0.65650000  0.64670803  1
  N  N3054  1  0.53150000  0.96850000  0.63893501  1
  N  N3055  1  0.59350000  0.84350000  0.65062564  1
  N  N3056  1  0.71850000  0.53150000  0.65448106  1
  N  N3057  1  0.90650000  0.59350000  0.64670803  1
  N  N3058  1  0.71850000  0.96850000  0.64285262  1
  N  N3059  1  0.90650000  0.90650000  0.65062564  1
  N  N3060  1  0.65650000  0.65650000  0.63507959  1
  N  N3061  1  0.78150000  0.71850000  0.65448106  1
  N  N3062  1  0.84350000  0.59350000  0.63507959  1
  N  N3063  1  0.84350000  0.90650000  0.63116199  1
  N  N3064  1  0.78150000  0.78150000  0.64285262  1
  N  N3065  1  0.96850000  0.78150000  0.63893501  1
  N  N3066  1  0.65650000  0.84350000  0.63116199  1
  N  N3067  1  0.96850000  0.71850000  0.62730657  1
  Zr  Zr3068  1  0.62500000  0.68750000  0.62534777  1
  Zr  Zr3069  1  0.50000000  0.62500000  0.63700730  1
  Zr  Zr3070  1  0.62500000  0.81250000  0.64089381  1
  Zr  Zr3071  1  0.50000000  0.87500000  0.62923428  1
  Zr  Zr3072  1  0.75000000  0.62500000  0.64478033  1
  Zr  Zr3073  1  0.87500000  0.93750000  0.64089381  1
  Zr  Zr3074  1  0.75000000  0.87500000  0.65255335  1
  Zr  Zr3075  1  0.87500000  0.56250000  0.62534777  1
  Zr  Zr3076  1  0.68750000  0.50000000  0.63312079  1
  Zr  Zr3077  1  0.56250000  0.50000000  0.64866684  1
  Zr  Zr3078  1  0.81250000  0.75000000  0.63312079  1
  Zr  Zr3079  1  0.93750000  0.75000000  0.64866684  1
  N  N3080  1  0.53150000  0.53150000  0.65839866  1
  N  N3081  1  0.59350000  0.65650000  0.67780013  1
  N  N3082  1  0.53150000  0.96850000  0.67002710  1
  N  N3083  1  0.59350000  0.84350000  0.68171773  1
  N  N3084  1  0.71850000  0.53150000  0.68557315  1
  N  N3085  1  0.90650000  0.59350000  0.67780013  1
  N  N3086  1  0.71850000  0.96850000  0.67394471  1
  N  N3087  1  0.90650000  0.90650000  0.68171773  1
  N  N3088  1  0.65650000  0.65650000  0.66617168  1
  N  N3089  1  0.78150000  0.71850000  0.68557315  1
  N  N3090  1  0.84350000  0.59350000  0.66617168  1
  N  N3091  1  0.84350000  0.90650000  0.66225408  1
  N  N3092  1  0.78150000  0.78150000  0.67394471  1
  N  N3093  1  0.96850000  0.78150000  0.67002710  1
  N  N3094  1  0.65650000  0.84350000  0.66225408  1
  N  N3095  1  0.96850000  0.71850000  0.65839866  1
  Zr  Zr3096  1  0.62500000  0.68750000  0.65643986  1
  Zr  Zr3097  1  0.50000000  0.62500000  0.66809939  1
  Zr  Zr3098  1  0.62500000  0.81250000  0.67198591  1
  Zr  Zr3099  1  0.50000000  0.87500000  0.66032637  1
  Zr  Zr3100  1  0.75000000  0.62500000  0.67587242  1
  Zr  Zr3101  1  0.87500000  0.93750000  0.67198591  1
  Zr  Zr3102  1  0.75000000  0.87500000  0.68364544  1
  Zr  Zr3103  1  0.87500000  0.56250000  0.65643986  1
  Zr  Zr3104  1  0.68750000  0.50000000  0.66421288  1
  Zr  Zr3105  1  0.56250000  0.50000000  0.67975893  1
  Zr  Zr3106  1  0.81250000  0.75000000  0.66421288  1
  Zr  Zr3107  1  0.93750000  0.75000000  0.67975893  1
  N  N3108  1  0.53150000  0.53150000  0.68949075  1
  N  N3109  1  0.59350000  0.65650000  0.70889222  1
  N  N3110  1  0.53150000  0.96850000  0.70111920  1
  N  N3111  1  0.59350000  0.84350000  0.71280982  1
  N  N3112  1  0.71850000  0.53150000  0.71666524  1
  N  N3113  1  0.90650000  0.59350000  0.70889222  1
  N  N3114  1  0.71850000  0.96850000  0.70503680  1
  N  N3115  1  0.90650000  0.90650000  0.71280982  1
  N  N3116  1  0.65650000  0.65650000  0.69726378  1
  N  N3117  1  0.78150000  0.71850000  0.71666524  1
  N  N3118  1  0.84350000  0.59350000  0.69726378  1
  N  N3119  1  0.84350000  0.90650000  0.69334617  1
  N  N3120  1  0.78150000  0.78150000  0.70503680  1
  N  N3121  1  0.96850000  0.78150000  0.70111920  1
  N  N3122  1  0.65650000  0.84350000  0.69334617  1
  N  N3123  1  0.96850000  0.71850000  0.68949075  1
  Zr  Zr3124  1  0.62500000  0.68750000  0.68753195  1
  Zr  Zr3125  1  0.50000000  0.62500000  0.69919149  1
  Zr  Zr3126  1  0.62500000  0.81250000  0.70307800  1
  Zr  Zr3127  1  0.50000000  0.87500000  0.69141846  1
  Zr  Zr3128  1  0.75000000  0.62500000  0.70696451  1
  Zr  Zr3129  1  0.87500000  0.93750000  0.70307800  1
  Zr  Zr3130  1  0.75000000  0.87500000  0.71473753  1
  Zr  Zr3131  1  0.87500000  0.56250000  0.68753195  1
  Zr  Zr3132  1  0.68750000  0.50000000  0.69530497  1
  Zr  Zr3133  1  0.56250000  0.50000000  0.71085102  1
  Zr  Zr3134  1  0.81250000  0.75000000  0.69530497  1
  Zr  Zr3135  1  0.93750000  0.75000000  0.71085102  1
  N  N3136  1  0.53150000  0.53150000  0.72058284  1
  N  N3137  1  0.59350000  0.65650000  0.73998431  1
  N  N3138  1  0.53150000  0.96850000  0.73221129  1
  N  N3139  1  0.59350000  0.84350000  0.74390191  1
  N  N3140  1  0.71850000  0.53150000  0.74775733  1
  N  N3141  1  0.90650000  0.59350000  0.73998431  1
  N  N3142  1  0.71850000  0.96850000  0.73612889  1
  N  N3143  1  0.90650000  0.90650000  0.74390191  1
  N  N3144  1  0.65650000  0.65650000  0.72835587  1
  N  N3145  1  0.78150000  0.71850000  0.74775733  1
  N  N3146  1  0.84350000  0.59350000  0.72835587  1
  N  N3147  1  0.84350000  0.90650000  0.72443826  1
  N  N3148  1  0.78150000  0.78150000  0.73612889  1
  N  N3149  1  0.96850000  0.78150000  0.73221129  1
  N  N3150  1  0.65650000  0.84350000  0.72443826  1
  N  N3151  1  0.96850000  0.71850000  0.72058284  1
  Zr  Zr3152  1  0.62500000  0.68750000  0.71862404  1
  Zr  Zr3153  1  0.50000000  0.62500000  0.73028358  1
  Zr  Zr3154  1  0.62500000  0.81250000  0.73417009  1
  Zr  Zr3155  1  0.50000000  0.87500000  0.72251055  1
  Zr  Zr3156  1  0.75000000  0.62500000  0.73805660  1
  Zr  Zr3157  1  0.87500000  0.93750000  0.73417009  1
  Zr  Zr3158  1  0.75000000  0.87500000  0.74582962  1
  Zr  Zr3159  1  0.87500000  0.56250000  0.71862404  1
  Zr  Zr3160  1  0.68750000  0.50000000  0.72639707  1
  Zr  Zr3161  1  0.56250000  0.50000000  0.74194311  1
  Zr  Zr3162  1  0.81250000  0.75000000  0.72639707  1
  Zr  Zr3163  1  0.93750000  0.75000000  0.74194311  1
  N  N3164  1  0.53150000  0.53150000  0.75167494  1
  N  N3165  1  0.59350000  0.65650000  0.77107640  1
  N  N3166  1  0.53150000  0.96850000  0.76330338  1
  N  N3167  1  0.59350000  0.84350000  0.77499401  1
  N  N3168  1  0.71850000  0.53150000  0.77884942  1
  N  N3169  1  0.90650000  0.59350000  0.77107640  1
  N  N3170  1  0.71850000  0.96850000  0.76722098  1
  N  N3171  1  0.90650000  0.90650000  0.77499401  1
  N  N3172  1  0.65650000  0.65650000  0.75944796  1
  N  N3173  1  0.78150000  0.71850000  0.77884942  1
  N  N3174  1  0.84350000  0.59350000  0.75944796  1
  N  N3175  1  0.84350000  0.90650000  0.75553036  1
  N  N3176  1  0.78150000  0.78150000  0.76722098  1
  N  N3177  1  0.96850000  0.78150000  0.76330338  1
  N  N3178  1  0.65650000  0.84350000  0.75553036  1
  N  N3179  1  0.96850000  0.71850000  0.75167494  1
  Zr  Zr3180  1  0.62500000  0.68750000  0.74971613  1
  Zr  Zr3181  1  0.50000000  0.62500000  0.76137567  1
  Zr  Zr3182  1  0.62500000  0.81250000  0.76526218  1
  Zr  Zr3183  1  0.50000000  0.87500000  0.75360265  1
  Zr  Zr3184  1  0.75000000  0.62500000  0.76914869  1
  Zr  Zr3185  1  0.87500000  0.93750000  0.76526218  1
  Zr  Zr3186  1  0.75000000  0.87500000  0.77692172  1
  Zr  Zr3187  1  0.87500000  0.56250000  0.74971613  1
  Zr  Zr3188  1  0.68750000  0.50000000  0.75748916  1
  Zr  Zr3189  1  0.56250000  0.50000000  0.77303520  1
  Zr  Zr3190  1  0.81250000  0.75000000  0.75748916  1
  Zr  Zr3191  1  0.93750000  0.75000000  0.77303520  1
  N  N3192  1  0.53150000  0.53150000  0.78276703  1
  N  N3193  1  0.59350000  0.65650000  0.80216849  1
  N  N3194  1  0.53150000  0.96850000  0.79439547  1
  N  N3195  1  0.59350000  0.84350000  0.80608610  1
  N  N3196  1  0.71850000  0.53150000  0.80994152  1
  N  N3197  1  0.90650000  0.59350000  0.80216849  1
  N  N3198  1  0.71850000  0.96850000  0.79831307  1
  N  N3199  1  0.90650000  0.90650000  0.80608610  1
  N  N3200  1  0.65650000  0.65650000  0.79054005  1
  N  N3201  1  0.78150000  0.71850000  0.80994152  1
  N  N3202  1  0.84350000  0.59350000  0.79054005  1
  N  N3203  1  0.84350000  0.90650000  0.78662245  1
  N  N3204  1  0.78150000  0.78150000  0.79831307  1
  N  N3205  1  0.96850000  0.78150000  0.79439547  1
  N  N3206  1  0.65650000  0.84350000  0.78662245  1
  N  N3207  1  0.96850000  0.71850000  0.78276703  1
  Zr  Zr3208  1  0.62500000  0.68750000  0.78080823  1
  Zr  Zr3209  1  0.50000000  0.62500000  0.79246776  1
  Zr  Zr3210  1  0.62500000  0.81250000  0.79635427  1
  Zr  Zr3211  1  0.50000000  0.87500000  0.78469474  1
  Zr  Zr3212  1  0.75000000  0.62500000  0.80024078  1
  Zr  Zr3213  1  0.87500000  0.93750000  0.79635427  1
  Zr  Zr3214  1  0.75000000  0.87500000  0.80801381  1
  Zr  Zr3215  1  0.87500000  0.56250000  0.78080823  1
  Zr  Zr3216  1  0.68750000  0.50000000  0.78858125  1
  Zr  Zr3217  1  0.56250000  0.50000000  0.80412730  1
  Zr  Zr3218  1  0.81250000  0.75000000  0.78858125  1
  Zr  Zr3219  1  0.93750000  0.75000000  0.80412730  1
  N  N3220  1  0.53150000  0.53150000  0.81385912  1
  N  N3221  1  0.59350000  0.65650000  0.83326059  1
  N  N3222  1  0.53150000  0.96850000  0.82548756  1
  N  N3223  1  0.59350000  0.84350000  0.83717819  1
  N  N3224  1  0.71850000  0.53150000  0.84103361  1
  N  N3225  1  0.90650000  0.59350000  0.83326059  1
  N  N3226  1  0.71850000  0.96850000  0.82940517  1
  N  N3227  1  0.90650000  0.90650000  0.83717819  1
  N  N3228  1  0.65650000  0.65650000  0.82163214  1
  N  N3229  1  0.78150000  0.71850000  0.84103361  1
  N  N3230  1  0.84350000  0.59350000  0.82163214  1
  N  N3231  1  0.84350000  0.90650000  0.81771454  1
  N  N3232  1  0.78150000  0.78150000  0.82940517  1
  N  N3233  1  0.96850000  0.78150000  0.82548756  1
  N  N3234  1  0.65650000  0.84350000  0.81771454  1
  N  N3235  1  0.96850000  0.71850000  0.81385912  1
  Zr  Zr3236  1  0.62500000  0.68750000  0.81190032  1
  Zr  Zr3237  1  0.50000000  0.62500000  0.82355985  1
  Zr  Zr3238  1  0.62500000  0.81250000  0.82744636  1
  Zr  Zr3239  1  0.50000000  0.87500000  0.81578683  1
  Zr  Zr3240  1  0.75000000  0.62500000  0.83133288  1
  Zr  Zr3241  1  0.87500000  0.93750000  0.82744636  1
  Zr  Zr3242  1  0.75000000  0.87500000  0.83910590  1
  Zr  Zr3243  1  0.87500000  0.56250000  0.81190032  1
  Zr  Zr3244  1  0.68750000  0.50000000  0.81967334  1
  Zr  Zr3245  1  0.56250000  0.50000000  0.83521939  1
  Zr  Zr3246  1  0.81250000  0.75000000  0.81967334  1
  Zr  Zr3247  1  0.93750000  0.75000000  0.83521939  1
  N  N3248  1  0.53150000  0.53150000  0.84495121  1
  N  N3249  1  0.59350000  0.65650000  0.86435268  1
  N  N3250  1  0.53150000  0.96850000  0.85657965  1
  N  N3251  1  0.59350000  0.84350000  0.86827028  1
  N  N3252  1  0.71850000  0.53150000  0.87212570  1
  N  N3253  1  0.90650000  0.59350000  0.86435268  1
  N  N3254  1  0.71850000  0.96850000  0.86049726  1
  N  N3255  1  0.90650000  0.90650000  0.86827028  1
  N  N3256  1  0.65650000  0.65650000  0.85272423  1
  N  N3257  1  0.78150000  0.71850000  0.87212570  1
  N  N3258  1  0.84350000  0.59350000  0.85272423  1
  N  N3259  1  0.84350000  0.90650000  0.84880663  1
  N  N3260  1  0.78150000  0.78150000  0.86049726  1
  N  N3261  1  0.96850000  0.78150000  0.85657965  1
  N  N3262  1  0.65650000  0.84350000  0.84880663  1
  N  N3263  1  0.96850000  0.71850000  0.84495121  1
  Zr  Zr3264  1  0.62500000  0.68750000  0.84299241  1
  Zr  Zr3265  1  0.50000000  0.62500000  0.85465194  1
  Zr  Zr3266  1  0.62500000  0.81250000  0.85853846  1
  Zr  Zr3267  1  0.50000000  0.87500000  0.84687892  1
  Zr  Zr3268  1  0.75000000  0.62500000  0.86242497  1
  Zr  Zr3269  1  0.87500000  0.93750000  0.85853846  1
  Zr  Zr3270  1  0.75000000  0.87500000  0.87019799  1
  Zr  Zr3271  1  0.87500000  0.56250000  0.84299241  1
  Zr  Zr3272  1  0.68750000  0.50000000  0.85076543  1
  Zr  Zr3273  1  0.56250000  0.50000000  0.86631148  1
  Zr  Zr3274  1  0.81250000  0.75000000  0.85076543  1
  Zr  Zr3275  1  0.93750000  0.75000000  0.86631148  1
  N  N3276  1  0.53150000  0.53150000  0.87604330  1
  N  N3277  1  0.59350000  0.65650000  0.89544477  1
  N  N3278  1  0.53150000  0.96850000  0.88767175  1
  N  N3279  1  0.59350000  0.84350000  0.89936237  1
  N  N3280  1  0.71850000  0.53150000  0.90321779  1
  N  N3281  1  0.90650000  0.59350000  0.89544477  1
  N  N3282  1  0.71850000  0.96850000  0.89158935  1
  N  N3283  1  0.90650000  0.90650000  0.89936237  1
  N  N3284  1  0.65650000  0.65650000  0.88381633  1
  N  N3285  1  0.78150000  0.71850000  0.90321779  1
  N  N3286  1  0.84350000  0.59350000  0.88381633  1
  N  N3287  1  0.84350000  0.90650000  0.87989872  1
  N  N3288  1  0.78150000  0.78150000  0.89158935  1
  N  N3289  1  0.96850000  0.78150000  0.88767175  1
  N  N3290  1  0.65650000  0.84350000  0.87989872  1
  N  N3291  1  0.96850000  0.71850000  0.87604330  1
  Zr  Zr3292  1  0.62500000  0.68750000  0.87408450  1
  Zr  Zr3293  1  0.50000000  0.62500000  0.88574404  1
  Zr  Zr3294  1  0.62500000  0.81250000  0.88963055  1
  Zr  Zr3295  1  0.50000000  0.87500000  0.87797101  1
  Zr  Zr3296  1  0.75000000  0.62500000  0.89351706  1
  Zr  Zr3297  1  0.87500000  0.93750000  0.88963055  1
  Zr  Zr3298  1  0.75000000  0.87500000  0.90129008  1
  Zr  Zr3299  1  0.87500000  0.56250000  0.87408450  1
  Zr  Zr3300  1  0.68750000  0.50000000  0.88185752  1
  Zr  Zr3301  1  0.56250000  0.50000000  0.89740357  1
  Zr  Zr3302  1  0.81250000  0.75000000  0.88185752  1
  Zr  Zr3303  1  0.93750000  0.75000000  0.89740357  1
  N  N3304  1  0.53150000  0.53150000  0.90713540  1
  N  N3305  1  0.59350000  0.65650000  0.92653686  1
  N  N3306  1  0.53150000  0.96850000  0.91876384  1
  N  N3307  1  0.59350000  0.84350000  0.93045446  1
  N  N3308  1  0.71850000  0.53150000  0.93430988  1
  N  N3309  1  0.90650000  0.59350000  0.92653686  1
  N  N3310  1  0.71850000  0.96850000  0.92268144  1
  N  N3311  1  0.90650000  0.90650000  0.93045446  1
  N  N3312  1  0.65650000  0.65650000  0.91490842  1
  N  N3313  1  0.78150000  0.71850000  0.93430988  1
  N  N3314  1  0.84350000  0.59350000  0.91490842  1
  N  N3315  1  0.84350000  0.90650000  0.91099081  1
  N  N3316  1  0.78150000  0.78150000  0.92268144  1
  N  N3317  1  0.96850000  0.78150000  0.91876384  1
  N  N3318  1  0.65650000  0.84350000  0.91099081  1
  N  N3319  1  0.96850000  0.71850000  0.90713540  1
  Zr  Zr3320  1  0.62500000  0.68750000  0.90517659  1
  Zr  Zr3321  1  0.50000000  0.62500000  0.91683613  1
  Zr  Zr3322  1  0.62500000  0.81250000  0.92072264  1
  Zr  Zr3323  1  0.50000000  0.87500000  0.90906310  1
  Zr  Zr3324  1  0.75000000  0.62500000  0.92460915  1
  Zr  Zr3325  1  0.87500000  0.93750000  0.92072264  1
  Zr  Zr3326  1  0.75000000  0.87500000  0.93238217  1
  Zr  Zr3327  1  0.87500000  0.56250000  0.90517659  1
  Zr  Zr3328  1  0.68750000  0.50000000  0.91294962  1
  Zr  Zr3329  1  0.56250000  0.50000000  0.92849566  1
  Zr  Zr3330  1  0.81250000  0.75000000  0.91294962  1
  Zr  Zr3331  1  0.93750000  0.75000000  0.92849566  1
  N  N3332  1  0.53150000  0.53150000  0.93822749  1
  N  N3333  1  0.59350000  0.65650000  0.95762895  1
  N  N3334  1  0.53150000  0.96850000  0.94985593  1
  N  N3335  1  0.59350000  0.84350000  0.96154656  1
  N  N3336  1  0.71850000  0.53150000  0.96540198  1
  N  N3337  1  0.90650000  0.59350000  0.95762895  1
  N  N3338  1  0.71850000  0.96850000  0.95377353  1
  N  N3339  1  0.90650000  0.90650000  0.96154656  1
  N  N3340  1  0.65650000  0.65650000  0.94600051  1
  N  N3341  1  0.78150000  0.71850000  0.96540198  1
  N  N3342  1  0.84350000  0.59350000  0.94600051  1
  N  N3343  1  0.84350000  0.90650000  0.94208291  1
  N  N3344  1  0.78150000  0.78150000  0.95377353  1
  N  N3345  1  0.96850000  0.78150000  0.94985593  1
  N  N3346  1  0.65650000  0.84350000  0.94208291  1
  N  N3347  1  0.96850000  0.71850000  0.93822749  1
  Zr  Zr3348  1  0.62500000  0.68750000  0.93626869  1
  Zr  Zr3349  1  0.50000000  0.62500000  0.94792822  1
  Zr  Zr3350  1  0.62500000  0.81250000  0.95181473  1
  Zr  Zr3351  1  0.50000000  0.87500000  0.94015520  1
  Zr  Zr3352  1  0.75000000  0.62500000  0.95570124  1
  Zr  Zr3353  1  0.87500000  0.93750000  0.95181473  1
  Zr  Zr3354  1  0.75000000  0.87500000  0.96347427  1
  Zr  Zr3355  1  0.87500000  0.56250000  0.93626869  1
  Zr  Zr3356  1  0.68750000  0.50000000  0.94404171  1
  Zr  Zr3357  1  0.56250000  0.50000000  0.95958775  1
  Zr  Zr3358  1  0.81250000  0.75000000  0.94404171  1
  Zr  Zr3359  1  0.93750000  0.75000000  0.95958775  1
